* Extracted by KLayout with SG13G2 LVS runset on : 14/04/2026 10:12

.SUBCKT TMRD vss in_srout out_srout vdd_block vdd_periph out_shift out_latch
+ clk out_l2s out_srin in_shift in_latch in_srin
X$2 vss out_l2s out_shift out_srout vdd_periph out_srin out_latch clk in_shift
+ in_srin in_srout in_latch vdd_block
+ SPDICEBlock_512x32_4we_C2B_R3B4B_TMR2X_Test
.ENDS TMRD

.SUBCKT SPDICEBlock_512x32_4we_C2B_R3B4B_TMR2X_Test vss out_l2s out_shift
+ out_srout vdd_periph out_srin out_latch clk in_shift in_srin in_srout
+ in_latch vdd_block
X$1 vss clk vdd_block \$64 \$62 \$63 \$65 \$14 \$66 \$15 \$67 \$16 \$68 \$17
+ \$69 \$18 \$70 \$19 \$98 \$20 \$71 \$21 \$72 \$73 \$22 \$74 \$23 \$75 \$24
+ \$76 \$25 \$77 \$26 \$78 \$27 \$99 \$28 \$79 \$29 \$80 \$81 \$30 \$82 \$31
+ \$83 \$32 \$84 \$33 \$85 \$34 \$86 \$35 \$100 \$36 \$87 \$37 \$88 \$89 \$38
+ \$90 \$39 \$91 \$40 \$92 \$41 \$93 \$42 \$94 \$43 \$101 \$44 \$95 \$45 \$96
+ \$60 \$61 \$59 \$57 \$58 \$56 SPDICEBlock_512x32_4we_C2B_R3B4B_TMR2X
X$2 vss in_shift \$49 vdd_periph \$50 in_latch \$65 \$66 \$67 \$68 \$69 \$70
+ \$98 \$71 \$72 SPDICETimingIn_9SL
X$3 vss out_shift out_l2s \$9 vdd_periph \$8 out_latch \$14 \$15 \$16 \$17 \$18
+ \$19 \$20 \$21 SPDICETimingOut_8SL
X$6 vss in_shift \$50 vdd_periph \$51 in_latch \$73 \$74 \$75 \$76 \$77 \$78
+ \$99 \$79 \$80 SPDICETimingIn_9SL
X$7 vss out_shift out_l2s \$10 vdd_periph \$9 out_latch \$22 \$23 \$24 \$25
+ \$26 \$27 \$28 \$29 SPDICETimingOut_8SL
X$8 vss in_shift \$52 vdd_periph in_srout in_latch \$89 \$90 \$91 \$92 \$93
+ \$94 \$101 \$95 \$96 SPDICETimingIn_9SL
X$9 vss out_shift out_l2s out_srout vdd_periph \$11 out_latch \$38 \$39 \$40
+ \$41 \$42 \$43 \$44 \$45 SPDICETimingOut_8SL
X$10 vss in_shift \$51 vdd_periph \$52 in_latch \$81 \$82 \$83 \$84 \$85 \$86
+ \$100 \$87 \$88 SPDICETimingIn_9SL
X$11 vss out_shift out_l2s \$11 vdd_periph \$10 out_latch \$30 \$31 \$32 \$33
+ \$34 \$35 \$36 \$37 SPDICETimingOut_8SL
X$12 vss in_shift in_srin vdd_periph \$49 in_latch \$56 \$57 \$58 \$59 \$60
+ \$61 \$62 \$63 \$64 SPDICETimingIn_9SF
X$19 vss vdd_periph out_shift out_l2s in_latch out_latch clk out_srin \$8
+ SPDICETimingOut_2SL
.ENDS SPDICEBlock_512x32_4we_C2B_R3B4B_TMR2X_Test

.SUBCKT SPDICETimingOut_2SL vss vdd sr_shift l2s o[0] o[1] sr_latch sr_in sr_out
X$1 vss \$11 \$10 sr_shift vdd dff_x1
X$2 vss o[0] \$12 sr_latch vdd dff_x1
X$3 vdd vss l2s sr_in \$12 \$11 mux2_x1
X$4 vdd vss l2s \$10 \$15 \$14 mux2_x1
X$5 vss \$14 sr_out sr_shift vdd dff_x1
X$6 vss o[1] \$15 sr_latch vdd dff_x1
.ENDS SPDICETimingOut_2SL

.SUBCKT SPDICETimingOut_8SL vss sr_shift l2s sr_out vdd sr_in sr_latch o[0]
+ o[1] o[2] o[3] o[4] o[5] o[6] o[7]
X$1 vss \$9 \$10 sr_shift vdd dff_x1
X$2 vss o[0] \$25 sr_latch vdd dff_x1
X$3 vdd vss l2s sr_in \$25 \$9 mux2_x1
X$4 vdd vss l2s \$10 \$5 \$11 mux2_x1
X$5 vss \$11 \$12 sr_shift vdd dff_x1
X$6 vss o[1] \$5 sr_latch vdd dff_x1
X$7 vss \$13 \$14 sr_shift vdd dff_x1
X$8 vss o[2] \$26 sr_latch vdd dff_x1
X$9 vdd vss l2s \$12 \$26 \$13 mux2_x1
X$10 vdd vss l2s \$14 \$6 \$15 mux2_x1
X$11 vss \$15 \$16 sr_shift vdd dff_x1
X$12 vss o[3] \$6 sr_latch vdd dff_x1
X$13 vss \$17 \$18 sr_shift vdd dff_x1
X$14 vss o[4] \$28 sr_latch vdd dff_x1
X$15 vdd vss l2s \$16 \$28 \$17 mux2_x1
X$16 vdd vss l2s \$18 \$7 \$19 mux2_x1
X$17 vss \$19 \$20 sr_shift vdd dff_x1
X$18 vss o[5] \$7 sr_latch vdd dff_x1
X$19 vss \$21 \$22 sr_shift vdd dff_x1
X$20 vss o[6] \$29 sr_latch vdd dff_x1
X$21 vdd vss l2s \$20 \$29 \$21 mux2_x1
X$22 vdd vss l2s \$22 \$8 \$23 mux2_x1
X$23 vss \$23 sr_out sr_shift vdd dff_x1
X$24 vss o[7] \$8 sr_latch vdd dff_x1
.ENDS SPDICETimingOut_8SL

.SUBCKT SPDICETimingIn_9SL vss sr_shift sr_in vdd sr_out sr_latch i[0] i[1]
+ i[2] i[3] i[4] i[5] i[6] i[7] i[8]
X$1 vss sr_in \$5 sr_shift vdd dff_x1
X$2 vss \$5 i[0] sr_latch vdd dff_x1
X$3 vss \$5 \$6 sr_shift vdd dff_x1
X$4 vss \$6 i[1] sr_latch vdd dff_x1
X$5 vss \$6 \$7 sr_shift vdd dff_x1
X$6 vss \$7 i[2] sr_latch vdd dff_x1
X$7 vss \$7 \$8 sr_shift vdd dff_x1
X$8 vss \$8 i[3] sr_latch vdd dff_x1
X$9 vss \$8 \$9 sr_shift vdd dff_x1
X$10 vss \$9 i[4] sr_latch vdd dff_x1
X$11 vss \$9 \$10 sr_shift vdd dff_x1
X$12 vss \$10 i[5] sr_latch vdd dff_x1
X$13 vss \$10 \$11 sr_shift vdd dff_x1
X$14 vss \$11 i[6] sr_latch vdd dff_x1
X$15 vss \$11 \$12 sr_shift vdd dff_x1
X$16 vss \$12 i[7] sr_latch vdd dff_x1
X$17 vss \$12 sr_out sr_shift vdd dff_x1
X$18 vss sr_out i[8] sr_latch vdd dff_x1
.ENDS SPDICETimingIn_9SL

.SUBCKT SPDICETimingIn_9SF vss sr_shift sr_in vdd sr_out sr_latch i[8] i[7]
+ i[6] i[5] i[4] i[3] i[2] i[1] i[0]
X$1 vss sr_in \$5 sr_shift vdd dff_x1
X$2 vss \$5 i[8] sr_latch vdd dff_x1
X$3 vss \$5 \$6 sr_shift vdd dff_x1
X$4 vss \$6 i[7] sr_latch vdd dff_x1
X$5 vss \$6 \$7 sr_shift vdd dff_x1
X$6 vss \$7 i[6] sr_latch vdd dff_x1
X$7 vss \$7 \$8 sr_shift vdd dff_x1
X$8 vss \$8 i[5] sr_latch vdd dff_x1
X$9 vss \$8 \$9 sr_shift vdd dff_x1
X$10 vss \$9 i[4] sr_latch vdd dff_x1
X$11 vss \$9 \$10 sr_shift vdd dff_x1
X$12 vss \$10 i[3] sr_latch vdd dff_x1
X$13 vss \$10 \$11 sr_shift vdd dff_x1
X$14 vss \$11 i[2] sr_latch vdd dff_x1
X$15 vss \$11 \$12 sr_shift vdd dff_x1
X$16 vss \$12 i[1] sr_latch vdd dff_x1
X$17 vss \$12 sr_out sr_shift vdd dff_x1
X$18 vss sr_out i[0] sr_latch vdd dff_x1
.ENDS SPDICETimingIn_9SF

.SUBCKT SPDICEBlock_512x32_4we_C2B_R3B4B_TMR2X vss clk vdd a[0] a[2] a[1] d[0]
+ q[0] d[1] q[1] d[2] q[2] d[3] q[3] d[4] q[4] d[5] q[5] d[6] q[6] d[7] q[7]
+ we[0] d[8] q[8] d[9] q[9] d[10] q[10] d[11] q[11] d[12] q[12] d[13] q[13]
+ d[14] q[14] d[15] q[15] we[1] d[16] q[16] d[17] q[17] d[18] q[18] d[19] q[19]
+ d[20] q[20] d[21] q[21] d[22] q[22] d[23] q[23] we[2] d[24] q[24] d[25] q[25]
+ d[26] q[26] d[27] q[27] d[28] q[28] d[29] q[29] d[30] q[30] d[31] q[31] we[3]
+ a[4] a[3] a[5] a[7] a[6] a[8]
X$1 vss \$16 vdd a[0] \$7 \$15 a[1] \$14 \$13 a[2] \$17 \$18 \$106 \$104 \$103
+ \$101 a[3] \$98 \$99 a[4] \$100 \$108 \$105 \$107 \$97 \$102 a[5] \$129 \$125
+ \$130 \$128 a[6] \$134 \$132 \$131 \$133 \$126 \$124 a[7] \$127 \$154 \$155
+ a[8] \$157 \$160 \$152 \$150 \$151 \$148 \$149 \$158 \$159 \$156 \$153 \$180
+ \$179 \$181 \$178 \$173 \$185 \$182 \$184 \$176 \$183 \$177 \$174 \$175 \$200
+ \$205 \$207 \$203 \$206 \$204 \$201 \$202 \$508 \$500 \$501 \$504 \$8 \$503
+ \$498 \$509 \$491 \$490 \$495 \$493 \$492 \$488 \$487 \$496 \$494 \$497 \$489
+ \$506 \$499 \$505 \$502 \$510 \$507 \$540 \$538 \$537 \$542 \$544 \$541 \$539
+ \$536 \$545 \$547 \$548 \$546 \$543 \$569 \$564 \$566 \$561 \$562 \$568 \$567
+ \$565 \$563 \$571 \$570 \$573 \$572 \$591 \$596 \$592 \$593 \$594 \$595 \$588
+ \$589 \$590 \$600 \$598 \$599 \$597 \$618 \$615 \$617 \$613 \$614 \$616
+ SPDICERowPeriph_PD3B4B_LD2B2R
X$2 vss \$16 vdd a[0] \$3 \$15 a[1] \$14 \$13 a[2] \$17 \$18 \$106 \$104 \$103
+ \$101 a[3] \$98 \$99 a[4] \$100 \$108 \$105 \$107 \$97 \$102 a[5] \$129 \$125
+ \$130 \$128 a[6] \$134 \$132 \$131 \$133 \$126 \$124 a[7] \$127 \$154 \$155
+ a[8] \$157 \$160 \$152 \$150 \$151 \$148 \$149 \$158 \$159 \$156 \$153 \$180
+ \$179 \$181 \$178 \$173 \$185 \$182 \$184 \$176 \$183 \$177 \$174 \$175 \$200
+ \$205 \$207 \$203 \$206 \$204 \$201 \$202 \$508 \$500 \$501 \$504 \$5 \$503
+ \$498 \$509 \$491 \$490 \$495 \$493 \$492 \$488 \$487 \$496 \$494 \$497 \$489
+ \$506 \$499 \$505 \$502 \$510 \$507 \$540 \$538 \$537 \$542 \$544 \$541 \$539
+ \$536 \$545 \$547 \$548 \$546 \$543 \$569 \$564 \$566 \$561 \$562 \$568 \$567
+ \$565 \$563 \$571 \$570 \$573 \$572 \$591 \$596 \$592 \$593 \$594 \$595 \$588
+ \$589 \$590 \$600 \$598 \$599 \$597 \$618 \$615 \$617 \$613 \$614 \$616
+ SPDICERowPeriph_PD3B4B_LD2B2R
X$3 vss \$16 vdd a[0] \$19 \$15 a[1] \$14 \$13 a[2] \$17 \$18 \$106 \$104 \$103
+ \$101 a[3] \$98 \$99 a[4] \$100 \$108 \$105 \$107 \$97 \$102 a[5] \$129 \$125
+ \$130 \$128 a[6] \$134 \$132 \$131 \$133 \$126 \$124 a[7] \$127 \$154 \$155
+ a[8] \$157 \$160 \$152 \$150 \$151 \$148 \$149 \$158 \$159 \$156 \$153 \$180
+ \$179 \$181 \$178 \$173 \$185 \$182 \$184 \$176 \$183 \$177 \$174 \$175 \$200
+ \$205 \$207 \$203 \$206 \$204 \$201 \$202 \$508 \$500 \$501 \$504 \$20 \$503
+ \$498 \$509 \$491 \$490 \$495 \$493 \$492 \$488 \$487 \$496 \$494 \$497 \$489
+ \$506 \$499 \$505 \$502 \$510 \$507 \$540 \$538 \$537 \$542 \$544 \$541 \$539
+ \$536 \$545 \$547 \$548 \$546 \$543 \$569 \$564 \$566 \$561 \$562 \$568 \$567
+ \$565 \$563 \$571 \$570 \$573 \$572 \$591 \$596 \$592 \$593 \$594 \$595 \$588
+ \$589 \$590 \$600 \$598 \$599 \$597 \$618 \$615 \$617 \$613 \$614 \$616
+ SPDICERowPeriph_PD3B4B_LD2B2R
X$4 vss \$17 \$18 \$92 \$91 \$106 \$104 \$117 \$116 \$103 \$101 \$119 \$113
+ \$98 \$99 \$112 \$114 \$100 \$108 \$111 \$115 \$105 \$107 \$118 \$120 \$97
+ \$102 \$109 \$110 \$129 \$125 \$141 \$145 \$130 \$128 \$146 \$135 \$134 \$132
+ \$139 \$142 \$131 \$133 \$138 \$140 \$126 \$124 \$143 \$144 \$127 \$154 \$136
+ \$137 \$155 \$157 \$170 \$169 \$160 \$152 \$163 \$162 \$150 \$151 \$168 \$167
+ \$148 \$149 \$164 \$161 \$158 \$159 \$165 \$166 \$156 \$153 \$171 \$172 \$180
+ \$179 \$187 \$188 \$181 \$178 \$195 \$196 \$173 \$185 \$193 \$194 \$182 \$184
+ \$198 \$199 \$176 \$183 \$192 \$191 \$177 \$174 \$190 \$197 \$175 \$200 \$189
+ \$186 \$205 \$207 \$480 \$486 \$203 \$206 \$481 \$482 \$204 \$201 \$484 \$483
+ \$202 \$508 \$485 \$511 \$500 \$501 \$527 \$535 \$504 \$503 \$524 \$523 vdd
+ \$498 \$519 \$518 \$509 \$491 \$490 \$531 \$532 \$495 \$493 \$522 \$515 \$492
+ \$488 \$525 \$528 \$487 \$496 \$530 \$529 \$494 \$497 \$516 \$512 \$489 \$506
+ \$517 \$526 \$499 \$505 \$520 \$521 \$502 \$510 \$533 \$534 \$507 \$540 \$514
+ \$513 \$538 \$537 \$557 \$556 \$542 \$544 \$554 \$553 \$541 \$539 \$550 \$549
+ \$536 \$545 \$551 \$552 \$547 \$548 \$558 \$555 \$546 \$543 \$559 \$560 \$569
+ \$564 \$583 \$584 \$566 \$561 \$586 \$585 \$562 \$568 \$580 \$581 \$567 \$565
+ \$587 \$582 \$563 \$571 \$577 \$574 \$570 \$573 \$579 \$578 \$572 \$591 \$576
+ \$575 \$596 \$592 \$607 \$608 \$593 \$594 \$603 \$604 \$595 \$588 \$611 \$612
+ \$589 \$590 \$606 \$605 \$600 \$598 \$610 \$609 \$599 \$597 \$601 \$602 \$618
+ \$615 \$623 \$624 \$617 \$613 \$620 \$622 \$614 \$616 \$621 \$619
+ SPDICEWLDriverCol_128RN26L400WP26L800W
X$5 vss vdd clk \$19 \$20 \$21 \$93 \$94 SPDICEClockGen_4S11341D1R0C4WL
X$6 vss vdd d[0] q[0] d[1] q[1] d[2] q[2] d[3] q[3] d[4] q[4] d[5] q[5] d[6]
+ q[6] d[7] q[7] we[0] d[8] q[8] d[9] q[9] d[10] q[10] d[11] q[11] d[12] q[12]
+ d[13] q[13] d[14] q[14] d[15] q[15] we[1] \$167 \$188 \$187 \$172 \$171 \$166
+ \$165 \$161 \$195 \$168 \$162 \$163 \$169 \$170 \$16 \$15 \$137 \$483 \$189
+ \$186 \$480 \$197 \$486 \$190 \$481 \$482 \$484 \$164 \$191 \$192 \$485 \$199
+ \$141 \$198 \$194 \$193 \$196 \$114 \$143 \$91 \$117 \$116 \$140 \$138 \$119
+ \$113 \$112 \$142 \$136 \$139 \$111 \$115 \$135 \$118 \$146 \$120 \$109 \$110
+ \$145 \$14 \$13 \$21 \$144 \$92 d[16] q[16] d[17] q[17] d[18] q[18] d[19]
+ q[19] \$93 \$94 d[20] q[20] d[21] q[21] d[22] q[22] d[23] q[23] we[2] d[24]
+ q[24] d[25] q[25] d[26] q[26] d[27] q[27] d[28] q[28] d[29] q[29] d[30] q[30]
+ d[31] q[31] we[3] \$582 \$581 \$612 \$611 \$533 \$521 \$520 \$587 \$604 \$585
+ \$511 \$577 \$527 \$535 \$574 \$526 \$517 \$602 \$514 \$534 \$584 \$620 \$513
+ \$624 \$623 \$622 \$580 \$601 \$609 \$610 \$605 \$606 \$586 \$551 \$559 \$619
+ \$583 \$554 \$553 \$531 \$579 \$532 \$550 \$560 \$603 \$578 \$528 \$555 \$549
+ \$525 \$522 \$558 \$515 \$552 \$523 \$608 \$607 \$575 \$524 \$529 \$518 \$557
+ \$512 \$576 \$516 \$556 \$621 \$519 \$530
+ SPDICEColumnBlock_COL128R_CP8B_CM4MN26L580W1R_PC26L100W_4WE
X$7 vss vdd \$4 clk \$7 \$8 SPDICEClockGen_4S11341D1R1C2WL
X$8 vss vdd \$4 \$3 \$5 SPDICEClockGen_4S11341D1R1C0WL
.ENDS SPDICEBlock_512x32_4we_C2B_R3B4B_TMR2X

.SUBCKT mux2_x1 vdd vss cmd i0 i1 q
M$1 \$1 cmd vss vss sg13_lv_nmos L=0.13u W=0.78u AS=0.2652p AD=0.1482p PS=2.24u
+ PD=1.16u
M$2 vss i0 \$9 vss sg13_lv_nmos L=0.13u W=0.78u AS=0.1482p AD=0.1482p PS=1.16u
+ PD=1.16u
M$3 \$9 \$1 \$6 vss sg13_lv_nmos L=0.13u W=0.78u AS=0.1482p AD=0.195p PS=1.16u
+ PD=1.28u
M$4 \$6 cmd \$10 vss sg13_lv_nmos L=0.13u W=0.78u AS=0.195p AD=0.1482p PS=1.28u
+ PD=1.16u
M$5 \$10 i1 vss vss sg13_lv_nmos L=0.13u W=0.78u AS=0.1482p AD=0.2092p PS=1.16u
+ PD=1.48u
M$6 vss \$6 q vss sg13_lv_nmos L=0.13u W=1.07u AS=0.2092p AD=0.3638p PS=1.48u
+ PD=2.82u
M$7 \$1 cmd vdd vdd sg13_lv_pmos L=0.13u W=0.78u AS=0.2652p AD=0.1482p PS=2.24u
+ PD=1.16u
M$8 vdd i0 \$11 vdd sg13_lv_pmos L=0.13u W=0.78u AS=0.1482p AD=0.1482p PS=1.16u
+ PD=1.16u
M$9 \$11 cmd \$6 vdd sg13_lv_pmos L=0.13u W=0.78u AS=0.1482p AD=0.195p PS=1.16u
+ PD=1.28u
M$10 \$6 \$1 \$12 vdd sg13_lv_pmos L=0.13u W=0.78u AS=0.195p AD=0.1482p
+ PS=1.28u PD=1.16u
M$11 vdd i1 \$12 vdd sg13_lv_pmos L=0.13u W=0.78u AS=0.2075p AD=0.1482p
+ PS=1.47u PD=1.16u
M$12 vdd \$6 q vdd sg13_lv_pmos L=0.13u W=1.06u AS=0.2075p AD=0.3604p PS=1.47u
+ PD=2.8u
.ENDS mux2_x1

.SUBCKT SPDICEClockGen_4S11341D1R1C0WL vss vdd clk decodeclk wl_en
X$1 vdd vss delayed_clk decodeclk buf_x1
X$2 vdd vss \$9 wl_en buf_x4
X$3 vss vdd precharge_n \$12 inv_x3
X$4 vdd vss delayed_clk columnclk buf_x1
X$5 vss vdd \$9 \$12 delayed_clk SPDICENonOvlClock_4S11341D1R
X$6 vdd vss \$9 we_en buf_x1
X$7 vdd vss \$5 delayed_clk Delay_buf_x1
X$8 vdd vss clk \$5 Delay_buf_x1
.ENDS SPDICEClockGen_4S11341D1R1C0WL

.SUBCKT SPDICEClockGen_4S11341D1R1C2WL vss vdd delayed_clk clk decodeclk wl_en
X$1 vdd vss delayed_clk decodeclk buf_x1
X$2 vdd vss \$11 wl_en buf_x4
X$3 vss vdd precharge_n \$14 inv_x3
X$4 vdd vss \$10 \$11 Delay_buf_x1
X$5 vdd vss \$9 \$10 Delay_buf_x1
X$6 vdd vss delayed_clk columnclk buf_x1
X$7 vss vdd \$9 \$14 delayed_clk SPDICENonOvlClock_4S11341D1R
X$8 vdd vss \$9 we_en buf_x1
X$9 vdd vss \$5 delayed_clk Delay_buf_x1
X$10 vdd vss clk \$5 Delay_buf_x1
.ENDS SPDICEClockGen_4S11341D1R1C2WL

.SUBCKT SPDICEClockGen_4S11341D1R0C4WL vss vdd clk decodeclk wl_en precharge_n
+ columnclk we_en
X$1 vdd vss clk decodeclk buf_x1
X$2 vdd vss \$11 wl_en buf_x4
X$3 vss vdd precharge_n \$14 inv_x3
X$4 vdd vss \$10 \$11 Delay_buf_x1
X$5 vdd vss \$9 \$10 Delay_buf_x1
X$6 vdd vss \$8 \$9 Delay_buf_x1
X$7 vdd vss \$7 \$8 Delay_buf_x1
X$8 vdd vss clk columnclk buf_x1
X$9 vss vdd \$7 \$14 clk SPDICENonOvlClock_4S11341D1R
X$10 vdd vss \$7 we_en buf_x1
.ENDS SPDICEClockGen_4S11341D1R0C4WL

.SUBCKT SPDICEColumnBlock_COL128R_CP8B_CM4MN26L580W1R_PC26L100W_4WE vss vdd
+ d[0] q[0] d[1] q[1] d[2] q[2] d[3] q[3] d[4] q[4] d[5] q[5] d[6] q[6] d[7]
+ q[7] we[0] d[8] q[8] d[9] q[9] d[10] q[10] d[11] q[11] d[12] q[12] d[13]
+ q[13] d[14] q[14] d[15] q[15] we[1] wl[31] wl[39] wl[38] wl[37] wl[36] wl[35]
+ wl[34] wl[33] wl[40] wl[30] wl[29] wl[28] wl[27] wl[26] mux[0] mux[1] wl[25]
+ wl[57] wl[50] wl[51] wl[52] wl[49] wl[53] wl[48] wl[54] wl[55] wl[56] wl[32]
+ wl[47] wl[46] wl[58] wl[45] wl[14] wl[44] wl[43] wl[42] wl[41] wl[7] wl[22]
+ wl[1] wl[2] wl[3] wl[21] wl[20] wl[4] wl[5] wl[6] wl[19] wl[24] wl[18] wl[8]
+ wl[9] wl[17] wl[10] wl[16] wl[11] wl[12] wl[13] wl[15] mux[2] mux[3]
+ precharge_n wl[23] wl[0] d[16] q[16] d[17] q[17] d[18] q[18] d[19] q[19] clk
+ we_en d[20] q[20] d[21] q[21] d[22] q[22] d[23] q[23] we[2] d[24] q[24] d[25]
+ q[25] d[26] q[26] d[27] q[27] d[28] q[28] d[29] q[29] d[30] q[30] d[31] q[31]
+ we[3] wl[103] wl[101] wl[115] wl[114] wl[80] wl[79] wl[78] wl[102] wl[113]
+ wl[99] wl[59] wl[104] wl[60] wl[61] wl[105] wl[77] wl[76] wl[121] wl[82]
+ wl[81] wl[97] wl[124] wl[83] wl[123] wl[122] wl[125] wl[100] wl[120] wl[119]
+ wl[118] wl[117] wl[116] wl[98] wl[90] wl[94] wl[127] wl[96] wl[86] wl[87]
+ wl[66] wl[106] wl[67] wl[88] wl[95] wl[112] wl[107] wl[71] wl[93] wl[89]
+ wl[70] wl[68] wl[92] wl[69] wl[91] wl[63] wl[111] wl[110] wl[109] wl[62]
+ wl[73] wl[65] wl[84] wl[75] wl[108] wl[74] wl[85] wl[126] wl[64] wl[72]
X$1 vss d[8] q[8] d[9] q[9] d[10] q[10] d[11] q[11] d[12] q[12] d[13] q[13]
+ d[14] q[14] d[15] q[15] we[1] clk we_en vdd mux[2] mux[0] mux[3] mux[1]
+ precharge_n wl[12] wl[26] wl[10] wl[9] wl[17] wl[16] wl[15] wl[14] wl[13]
+ wl[7] wl[11] wl[8] wl[0] wl[1] wl[2] wl[3] wl[4] wl[5] wl[6] wl[23] wl[18]
+ wl[25] wl[24] wl[22] wl[21] wl[20] wl[19] wl[53] wl[55] wl[38] wl[54] wl[42]
+ wl[52] wl[51] wl[50] wl[49] wl[39] wl[48] wl[47] wl[46] wl[45] wl[44] wl[40]
+ wl[43] wl[27] wl[41] wl[36] wl[35] wl[34] wl[33] wl[32] wl[31] wl[30] wl[29]
+ wl[28] wl[37] wl[58] wl[56] wl[57] wl[73] wl[72] wl[87] wl[74] wl[75] wl[88]
+ wl[76] wl[77] wl[78] wl[79] wl[86] wl[80] wl[81] wl[82] wl[83] wl[84] wl[85]
+ wl[104] wl[59] wl[96] wl[97] wl[98] wl[99] wl[100] wl[101] wl[102] wl[103]
+ wl[70] wl[105] wl[106] wl[107] wl[108] wl[109] wl[110] wl[111] wl[112]
+ wl[113] wl[60] wl[71] wl[89] wl[69] wl[68] wl[90] wl[67] wl[66] wl[91] wl[65]
+ wl[64] wl[92] wl[63] wl[93] wl[62] wl[61] wl[94] wl[95] wl[116] wl[122]
+ wl[123] wl[117] wl[124] wl[121] wl[115] wl[127] wl[125] wl[118] wl[114]
+ wl[120] wl[126] wl[119] SPDICEColumn_128R_CP8B_CM4MN26L580W1R_PC26L100W
X$2 vss d[0] q[0] d[1] q[1] d[2] q[2] d[3] q[3] d[4] q[4] d[5] q[5] d[6] q[6]
+ d[7] q[7] we[0] clk we_en vdd mux[2] mux[0] mux[3] mux[1] precharge_n wl[12]
+ wl[26] wl[10] wl[9] wl[17] wl[16] wl[15] wl[14] wl[13] wl[7] wl[11] wl[8]
+ wl[0] wl[1] wl[2] wl[3] wl[4] wl[5] wl[6] wl[23] wl[18] wl[25] wl[24] wl[22]
+ wl[21] wl[20] wl[19] wl[53] wl[55] wl[38] wl[54] wl[42] wl[52] wl[51] wl[50]
+ wl[49] wl[39] wl[48] wl[47] wl[46] wl[45] wl[44] wl[40] wl[43] wl[27] wl[41]
+ wl[36] wl[35] wl[34] wl[33] wl[32] wl[31] wl[30] wl[29] wl[28] wl[37] wl[58]
+ wl[56] wl[57] wl[73] wl[72] wl[87] wl[74] wl[75] wl[88] wl[76] wl[77] wl[78]
+ wl[79] wl[86] wl[80] wl[81] wl[82] wl[83] wl[84] wl[85] wl[104] wl[59] wl[96]
+ wl[97] wl[98] wl[99] wl[100] wl[101] wl[102] wl[103] wl[70] wl[105] wl[106]
+ wl[107] wl[108] wl[109] wl[110] wl[111] wl[112] wl[113] wl[60] wl[71] wl[89]
+ wl[69] wl[68] wl[90] wl[67] wl[66] wl[91] wl[65] wl[64] wl[92] wl[63] wl[93]
+ wl[62] wl[61] wl[94] wl[95] wl[116] wl[122] wl[123] wl[117] wl[124] wl[121]
+ wl[115] wl[127] wl[125] wl[118] wl[114] wl[120] wl[126] wl[119]
+ SPDICEColumn_128R_CP8B_CM4MN26L580W1R_PC26L100W
X$3 vss d[16] q[16] d[17] q[17] d[18] q[18] d[19] q[19] d[20] q[20] d[21] q[21]
+ d[22] q[22] d[23] q[23] we[2] clk we_en vdd mux[2] mux[0] mux[3] mux[1]
+ precharge_n wl[12] wl[26] wl[10] wl[9] wl[17] wl[16] wl[15] wl[14] wl[13]
+ wl[7] wl[11] wl[8] wl[0] wl[1] wl[2] wl[3] wl[4] wl[5] wl[6] wl[23] wl[18]
+ wl[25] wl[24] wl[22] wl[21] wl[20] wl[19] wl[53] wl[55] wl[38] wl[54] wl[42]
+ wl[52] wl[51] wl[50] wl[49] wl[39] wl[48] wl[47] wl[46] wl[45] wl[44] wl[40]
+ wl[43] wl[27] wl[41] wl[36] wl[35] wl[34] wl[33] wl[32] wl[31] wl[30] wl[29]
+ wl[28] wl[37] wl[58] wl[56] wl[57] wl[73] wl[72] wl[87] wl[74] wl[75] wl[88]
+ wl[76] wl[77] wl[78] wl[79] wl[86] wl[80] wl[81] wl[82] wl[83] wl[84] wl[85]
+ wl[104] wl[59] wl[96] wl[97] wl[98] wl[99] wl[100] wl[101] wl[102] wl[103]
+ wl[70] wl[105] wl[106] wl[107] wl[108] wl[109] wl[110] wl[111] wl[112]
+ wl[113] wl[60] wl[71] wl[89] wl[69] wl[68] wl[90] wl[67] wl[66] wl[91] wl[65]
+ wl[64] wl[92] wl[63] wl[93] wl[62] wl[61] wl[94] wl[95] wl[116] wl[122]
+ wl[123] wl[117] wl[124] wl[121] wl[115] wl[127] wl[125] wl[118] wl[114]
+ wl[120] wl[126] wl[119] SPDICEColumn_128R_CP8B_CM4MN26L580W1R_PC26L100W
X$4 vss d[24] q[24] d[25] q[25] d[26] q[26] d[27] q[27] d[28] q[28] d[29] q[29]
+ d[30] q[30] d[31] q[31] we[3] clk we_en vdd mux[2] mux[0] mux[3] mux[1]
+ precharge_n wl[12] wl[26] wl[10] wl[9] wl[17] wl[16] wl[15] wl[14] wl[13]
+ wl[7] wl[11] wl[8] wl[0] wl[1] wl[2] wl[3] wl[4] wl[5] wl[6] wl[23] wl[18]
+ wl[25] wl[24] wl[22] wl[21] wl[20] wl[19] wl[53] wl[55] wl[38] wl[54] wl[42]
+ wl[52] wl[51] wl[50] wl[49] wl[39] wl[48] wl[47] wl[46] wl[45] wl[44] wl[40]
+ wl[43] wl[27] wl[41] wl[36] wl[35] wl[34] wl[33] wl[32] wl[31] wl[30] wl[29]
+ wl[28] wl[37] wl[58] wl[56] wl[57] wl[73] wl[72] wl[87] wl[74] wl[75] wl[88]
+ wl[76] wl[77] wl[78] wl[79] wl[86] wl[80] wl[81] wl[82] wl[83] wl[84] wl[85]
+ wl[104] wl[59] wl[96] wl[97] wl[98] wl[99] wl[100] wl[101] wl[102] wl[103]
+ wl[70] wl[105] wl[106] wl[107] wl[108] wl[109] wl[110] wl[111] wl[112]
+ wl[113] wl[60] wl[71] wl[89] wl[69] wl[68] wl[90] wl[67] wl[66] wl[91] wl[65]
+ wl[64] wl[92] wl[63] wl[93] wl[62] wl[61] wl[94] wl[95] wl[116] wl[122]
+ wl[123] wl[117] wl[124] wl[121] wl[115] wl[127] wl[125] wl[118] wl[114]
+ wl[120] wl[126] wl[119] SPDICEColumn_128R_CP8B_CM4MN26L580W1R_PC26L100W
.ENDS SPDICEColumnBlock_COL128R_CP8B_CM4MN26L580W1R_PC26L100W_4WE

.SUBCKT SPDICEWLDriverCol_128RN26L400WP26L800W vss wl_n[0] wl_n[1] wl[0] wl[1]
+ wl_n[2] wl_n[3] wl[2] wl[3] wl_n[4] wl_n[5] wl[4] wl[5] wl_n[6] wl_n[7] wl[6]
+ wl[7] wl_n[8] wl_n[9] wl[8] wl[9] wl_n[10] wl_n[11] wl[10] wl[11] wl_n[12]
+ wl_n[13] wl[12] wl[13] wl_n[14] wl_n[15] wl[14] wl[15] wl_n[16] wl_n[17]
+ wl[16] wl[17] wl_n[18] wl_n[19] wl[18] wl[19] wl_n[20] wl_n[21] wl[20] wl[21]
+ wl_n[22] wl_n[23] wl[22] wl[23] wl_n[24] wl_n[25] wl[24] wl[25] wl_n[26]
+ wl_n[27] wl[26] wl[27] wl_n[28] wl_n[29] wl[28] wl[29] wl_n[30] wl_n[31]
+ wl[30] wl[31] wl_n[32] wl_n[33] wl[32] wl[33] wl_n[34] wl_n[35] wl[34] wl[35]
+ wl_n[36] wl_n[37] wl[36] wl[37] wl_n[38] wl_n[39] wl[38] wl[39] wl_n[40]
+ wl_n[41] wl[40] wl[41] wl_n[42] wl_n[43] wl[42] wl[43] wl_n[44] wl_n[45]
+ wl[44] wl[45] wl_n[46] wl_n[47] wl[46] wl[47] wl_n[48] wl_n[49] wl[48] wl[49]
+ wl_n[50] wl_n[51] wl[50] wl[51] wl_n[52] wl_n[53] wl[52] wl[53] wl_n[54]
+ wl_n[55] wl[54] wl[55] wl_n[56] wl_n[57] wl[56] wl[57] wl_n[58] wl_n[59]
+ wl[58] wl[59] wl_n[60] wl_n[61] wl[60] wl[61] wl_n[62] wl_n[63] wl[62] wl[63]
+ vdd wl_n[64] wl[64] wl[65] wl_n[65] wl_n[66] wl_n[67] wl[66] wl[67] wl_n[68]
+ wl_n[69] wl[68] wl[69] wl_n[70] wl_n[71] wl[70] wl[71] wl_n[72] wl_n[73]
+ wl[72] wl[73] wl_n[74] wl_n[75] wl[74] wl[75] wl_n[76] wl_n[77] wl[76] wl[77]
+ wl_n[78] wl_n[79] wl[78] wl[79] wl_n[80] wl_n[81] wl[80] wl[81] wl_n[82]
+ wl_n[83] wl[82] wl[83] wl_n[84] wl_n[85] wl[84] wl[85] wl_n[86] wl_n[87]
+ wl[86] wl[87] wl_n[88] wl_n[89] wl[88] wl[89] wl_n[90] wl_n[91] wl[90] wl[91]
+ wl_n[92] wl_n[93] wl[92] wl[93] wl_n[94] wl_n[95] wl[94] wl[95] wl_n[96]
+ wl_n[97] wl[96] wl[97] wl_n[98] wl_n[99] wl[98] wl[99] wl_n[100] wl_n[101]
+ wl[100] wl[101] wl_n[102] wl_n[103] wl[102] wl[103] wl_n[104] wl_n[105]
+ wl[104] wl[105] wl_n[106] wl_n[107] wl[106] wl[107] wl_n[108] wl_n[109]
+ wl[108] wl[109] wl_n[110] wl_n[111] wl[110] wl[111] wl_n[112] wl_n[113]
+ wl[112] wl[113] wl_n[114] wl_n[115] wl[114] wl[115] wl_n[116] wl_n[117]
+ wl[116] wl[117] wl_n[118] wl_n[119] wl[118] wl[119] wl_n[120] wl_n[121]
+ wl[120] wl[121] wl_n[122] wl_n[123] wl[122] wl[123] wl_n[124] wl_n[125]
+ wl[124] wl[125] wl_n[126] wl_n[127] wl[126] wl[127]
X$1 vdd vss wl_n[0] wl[0] SPDICEWLDriver_N26L400WP26L800W
X$2 vdd vss wl_n[1] wl[1] SPDICEWLDriver_N26L400WP26L800W
X$3 vdd vss wl_n[2] wl[2] SPDICEWLDriver_N26L400WP26L800W
X$4 vdd vss wl_n[3] wl[3] SPDICEWLDriver_N26L400WP26L800W
X$5 vdd vss wl_n[4] wl[4] SPDICEWLDriver_N26L400WP26L800W
X$6 vdd vss wl_n[5] wl[5] SPDICEWLDriver_N26L400WP26L800W
X$7 vdd vss wl_n[6] wl[6] SPDICEWLDriver_N26L400WP26L800W
X$8 vdd vss wl_n[7] wl[7] SPDICEWLDriver_N26L400WP26L800W
X$9 vdd vss wl_n[8] wl[8] SPDICEWLDriver_N26L400WP26L800W
X$10 vdd vss wl_n[9] wl[9] SPDICEWLDriver_N26L400WP26L800W
X$11 vdd vss wl_n[10] wl[10] SPDICEWLDriver_N26L400WP26L800W
X$12 vdd vss wl_n[11] wl[11] SPDICEWLDriver_N26L400WP26L800W
X$13 vdd vss wl_n[12] wl[12] SPDICEWLDriver_N26L400WP26L800W
X$14 vdd vss wl_n[13] wl[13] SPDICEWLDriver_N26L400WP26L800W
X$15 vdd vss wl_n[14] wl[14] SPDICEWLDriver_N26L400WP26L800W
X$16 vdd vss wl_n[15] wl[15] SPDICEWLDriver_N26L400WP26L800W
X$17 vdd vss wl_n[16] wl[16] SPDICEWLDriver_N26L400WP26L800W
X$18 vdd vss wl_n[17] wl[17] SPDICEWLDriver_N26L400WP26L800W
X$19 vdd vss wl_n[18] wl[18] SPDICEWLDriver_N26L400WP26L800W
X$20 vdd vss wl_n[19] wl[19] SPDICEWLDriver_N26L400WP26L800W
X$21 vdd vss wl_n[20] wl[20] SPDICEWLDriver_N26L400WP26L800W
X$22 vdd vss wl_n[21] wl[21] SPDICEWLDriver_N26L400WP26L800W
X$23 vdd vss wl_n[22] wl[22] SPDICEWLDriver_N26L400WP26L800W
X$24 vdd vss wl_n[23] wl[23] SPDICEWLDriver_N26L400WP26L800W
X$25 vdd vss wl_n[24] wl[24] SPDICEWLDriver_N26L400WP26L800W
X$26 vdd vss wl_n[25] wl[25] SPDICEWLDriver_N26L400WP26L800W
X$27 vdd vss wl_n[26] wl[26] SPDICEWLDriver_N26L400WP26L800W
X$28 vdd vss wl_n[27] wl[27] SPDICEWLDriver_N26L400WP26L800W
X$29 vdd vss wl_n[28] wl[28] SPDICEWLDriver_N26L400WP26L800W
X$30 vdd vss wl_n[29] wl[29] SPDICEWLDriver_N26L400WP26L800W
X$31 vdd vss wl_n[30] wl[30] SPDICEWLDriver_N26L400WP26L800W
X$32 vdd vss wl_n[31] wl[31] SPDICEWLDriver_N26L400WP26L800W
X$33 vdd vss wl_n[32] wl[32] SPDICEWLDriver_N26L400WP26L800W
X$34 vdd vss wl_n[33] wl[33] SPDICEWLDriver_N26L400WP26L800W
X$35 vdd vss wl_n[34] wl[34] SPDICEWLDriver_N26L400WP26L800W
X$36 vdd vss wl_n[35] wl[35] SPDICEWLDriver_N26L400WP26L800W
X$37 vdd vss wl_n[36] wl[36] SPDICEWLDriver_N26L400WP26L800W
X$38 vdd vss wl_n[37] wl[37] SPDICEWLDriver_N26L400WP26L800W
X$39 vdd vss wl_n[38] wl[38] SPDICEWLDriver_N26L400WP26L800W
X$40 vdd vss wl_n[39] wl[39] SPDICEWLDriver_N26L400WP26L800W
X$41 vdd vss wl_n[40] wl[40] SPDICEWLDriver_N26L400WP26L800W
X$42 vdd vss wl_n[41] wl[41] SPDICEWLDriver_N26L400WP26L800W
X$43 vdd vss wl_n[42] wl[42] SPDICEWLDriver_N26L400WP26L800W
X$44 vdd vss wl_n[43] wl[43] SPDICEWLDriver_N26L400WP26L800W
X$45 vdd vss wl_n[44] wl[44] SPDICEWLDriver_N26L400WP26L800W
X$46 vdd vss wl_n[45] wl[45] SPDICEWLDriver_N26L400WP26L800W
X$47 vdd vss wl_n[46] wl[46] SPDICEWLDriver_N26L400WP26L800W
X$48 vdd vss wl_n[47] wl[47] SPDICEWLDriver_N26L400WP26L800W
X$49 vdd vss wl_n[48] wl[48] SPDICEWLDriver_N26L400WP26L800W
X$50 vdd vss wl_n[49] wl[49] SPDICEWLDriver_N26L400WP26L800W
X$51 vdd vss wl_n[50] wl[50] SPDICEWLDriver_N26L400WP26L800W
X$52 vdd vss wl_n[51] wl[51] SPDICEWLDriver_N26L400WP26L800W
X$53 vdd vss wl_n[52] wl[52] SPDICEWLDriver_N26L400WP26L800W
X$54 vdd vss wl_n[53] wl[53] SPDICEWLDriver_N26L400WP26L800W
X$55 vdd vss wl_n[54] wl[54] SPDICEWLDriver_N26L400WP26L800W
X$56 vdd vss wl_n[55] wl[55] SPDICEWLDriver_N26L400WP26L800W
X$57 vdd vss wl_n[56] wl[56] SPDICEWLDriver_N26L400WP26L800W
X$58 vdd vss wl_n[57] wl[57] SPDICEWLDriver_N26L400WP26L800W
X$59 vdd vss wl_n[58] wl[58] SPDICEWLDriver_N26L400WP26L800W
X$60 vdd vss wl_n[59] wl[59] SPDICEWLDriver_N26L400WP26L800W
X$61 vdd vss wl_n[60] wl[60] SPDICEWLDriver_N26L400WP26L800W
X$62 vdd vss wl_n[61] wl[61] SPDICEWLDriver_N26L400WP26L800W
X$63 vdd vss wl_n[62] wl[62] SPDICEWLDriver_N26L400WP26L800W
X$64 vdd vss wl_n[63] wl[63] SPDICEWLDriver_N26L400WP26L800W
X$65 vdd vss wl_n[64] wl[64] SPDICEWLDriver_N26L400WP26L800W
X$66 vdd vss wl_n[65] wl[65] SPDICEWLDriver_N26L400WP26L800W
X$67 vdd vss wl_n[66] wl[66] SPDICEWLDriver_N26L400WP26L800W
X$68 vdd vss wl_n[67] wl[67] SPDICEWLDriver_N26L400WP26L800W
X$69 vdd vss wl_n[68] wl[68] SPDICEWLDriver_N26L400WP26L800W
X$70 vdd vss wl_n[69] wl[69] SPDICEWLDriver_N26L400WP26L800W
X$71 vdd vss wl_n[70] wl[70] SPDICEWLDriver_N26L400WP26L800W
X$72 vdd vss wl_n[71] wl[71] SPDICEWLDriver_N26L400WP26L800W
X$73 vdd vss wl_n[72] wl[72] SPDICEWLDriver_N26L400WP26L800W
X$74 vdd vss wl_n[73] wl[73] SPDICEWLDriver_N26L400WP26L800W
X$75 vdd vss wl_n[74] wl[74] SPDICEWLDriver_N26L400WP26L800W
X$76 vdd vss wl_n[75] wl[75] SPDICEWLDriver_N26L400WP26L800W
X$77 vdd vss wl_n[76] wl[76] SPDICEWLDriver_N26L400WP26L800W
X$78 vdd vss wl_n[77] wl[77] SPDICEWLDriver_N26L400WP26L800W
X$79 vdd vss wl_n[78] wl[78] SPDICEWLDriver_N26L400WP26L800W
X$80 vdd vss wl_n[79] wl[79] SPDICEWLDriver_N26L400WP26L800W
X$81 vdd vss wl_n[80] wl[80] SPDICEWLDriver_N26L400WP26L800W
X$82 vdd vss wl_n[81] wl[81] SPDICEWLDriver_N26L400WP26L800W
X$83 vdd vss wl_n[82] wl[82] SPDICEWLDriver_N26L400WP26L800W
X$84 vdd vss wl_n[83] wl[83] SPDICEWLDriver_N26L400WP26L800W
X$85 vdd vss wl_n[84] wl[84] SPDICEWLDriver_N26L400WP26L800W
X$86 vdd vss wl_n[85] wl[85] SPDICEWLDriver_N26L400WP26L800W
X$87 vdd vss wl_n[86] wl[86] SPDICEWLDriver_N26L400WP26L800W
X$88 vdd vss wl_n[87] wl[87] SPDICEWLDriver_N26L400WP26L800W
X$89 vdd vss wl_n[88] wl[88] SPDICEWLDriver_N26L400WP26L800W
X$90 vdd vss wl_n[89] wl[89] SPDICEWLDriver_N26L400WP26L800W
X$91 vdd vss wl_n[90] wl[90] SPDICEWLDriver_N26L400WP26L800W
X$92 vdd vss wl_n[91] wl[91] SPDICEWLDriver_N26L400WP26L800W
X$93 vdd vss wl_n[92] wl[92] SPDICEWLDriver_N26L400WP26L800W
X$94 vdd vss wl_n[93] wl[93] SPDICEWLDriver_N26L400WP26L800W
X$95 vdd vss wl_n[94] wl[94] SPDICEWLDriver_N26L400WP26L800W
X$96 vdd vss wl_n[95] wl[95] SPDICEWLDriver_N26L400WP26L800W
X$97 vdd vss wl_n[96] wl[96] SPDICEWLDriver_N26L400WP26L800W
X$98 vdd vss wl_n[97] wl[97] SPDICEWLDriver_N26L400WP26L800W
X$99 vdd vss wl_n[98] wl[98] SPDICEWLDriver_N26L400WP26L800W
X$100 vdd vss wl_n[99] wl[99] SPDICEWLDriver_N26L400WP26L800W
X$101 vdd vss wl_n[100] wl[100] SPDICEWLDriver_N26L400WP26L800W
X$102 vdd vss wl_n[101] wl[101] SPDICEWLDriver_N26L400WP26L800W
X$103 vdd vss wl_n[102] wl[102] SPDICEWLDriver_N26L400WP26L800W
X$104 vdd vss wl_n[103] wl[103] SPDICEWLDriver_N26L400WP26L800W
X$105 vdd vss wl_n[104] wl[104] SPDICEWLDriver_N26L400WP26L800W
X$106 vdd vss wl_n[105] wl[105] SPDICEWLDriver_N26L400WP26L800W
X$107 vdd vss wl_n[106] wl[106] SPDICEWLDriver_N26L400WP26L800W
X$108 vdd vss wl_n[107] wl[107] SPDICEWLDriver_N26L400WP26L800W
X$109 vdd vss wl_n[108] wl[108] SPDICEWLDriver_N26L400WP26L800W
X$110 vdd vss wl_n[109] wl[109] SPDICEWLDriver_N26L400WP26L800W
X$111 vdd vss wl_n[110] wl[110] SPDICEWLDriver_N26L400WP26L800W
X$112 vdd vss wl_n[111] wl[111] SPDICEWLDriver_N26L400WP26L800W
X$113 vdd vss wl_n[112] wl[112] SPDICEWLDriver_N26L400WP26L800W
X$114 vdd vss wl_n[113] wl[113] SPDICEWLDriver_N26L400WP26L800W
X$115 vdd vss wl_n[114] wl[114] SPDICEWLDriver_N26L400WP26L800W
X$116 vdd vss wl_n[115] wl[115] SPDICEWLDriver_N26L400WP26L800W
X$117 vdd vss wl_n[116] wl[116] SPDICEWLDriver_N26L400WP26L800W
X$118 vdd vss wl_n[117] wl[117] SPDICEWLDriver_N26L400WP26L800W
X$119 vdd vss wl_n[118] wl[118] SPDICEWLDriver_N26L400WP26L800W
X$120 vdd vss wl_n[119] wl[119] SPDICEWLDriver_N26L400WP26L800W
X$121 vdd vss wl_n[120] wl[120] SPDICEWLDriver_N26L400WP26L800W
X$122 vdd vss wl_n[121] wl[121] SPDICEWLDriver_N26L400WP26L800W