* testlib


* Device subcircuits
*
.subckt rsil n1 n2 l=1e-6 w=1e-6
.param rsil_res={l*7.0/w}
Rres n1 n2 r={rsil_res} rsil l=l w=w
.ends rsil

.subckt rppd n1 n2 l=1e-6 w=1e-6
.param rppd_res={l*260.0/w}
Rres n1 n2 r={rppd_res} rppd l=l w=w
.ends rppd

.subckt dantenna an cat params: w=0.48e-6 l=0.48e-6
Ddio an cat dantenna a=(w*l) p=(2*(w + l))
.ends dantenna

.subckt dpantenna an cat params: w=0.48e-6 l=0.48e-6
Ddio an cat dpantenna a=(w*l) p=(2*(w + l))
.ends dpantenna

.subckt sg13_lv_nmos s g d b params: l=0.13e-6 w=0.15e-6
Mtrans s g d b sg13_lv_nmos l=l w=w
.ends sg13_lv_nmos

.subckt sg13_lv_pmos s g d b params: l=0.13e-6 w=0.15e-6
Mtrans s g d b sg13_lv_pmos l=l w=w
.ends sg13_lv_pmos

.subckt sg13_hv_nmos s g d b params: l=0.45e-6 w=0.3e-6
Mtrans s g d b sg13_hv_nmos l=l w=w
.ends sg13_hv_nmos

.subckt sg13_hv_pmos s g d b params: l=0.45e-6 w=0.3e-6
Mtrans s g d b sg13_hv_pmos l=l w=w
.ends sg13_hv_pmos

* Library cells
*
.subckt BondPad pad
.ends BondPad

.subckt sg13g2_IOPadIn pad p2c
.ends sg13g2_IOPadIn

.subckt sg13g2_IOPadOut30mA pad c2p
.ends sg13g2_IOPadOut30mA

.subckt sg13g2_IOPadAnalog pad pad_core
.ends sg13g2_IOPadAnalog

.subckt sg13g2_Corner 
.ends sg13g2_Corner

.subckt sg13g2_Filler2000 
.ends sg13g2_Filler2000

.subckt sg13g2_Filler4000 
.ends sg13g2_Filler4000

.subckt sg13g2_Filler10000 
.ends sg13g2_Filler10000

.subckt sg13g2_Filler20000 
Xfill1  sg13g2_Filler10000
Xfill2  sg13g2_Filler10000
.ends sg13g2_Filler20000

.subckt sg13g2_IOPadVss pad
.ends sg13g2_IOPadVss

.subckt sg13g2_IOPadVdd pad
.ends sg13g2_IOPadVdd

.subckt sg13g2_IOPadIOVss pad
.ends sg13g2_IOPadIOVss

.subckt sg13g2_IOPadIOVdd pad
.ends sg13g2_IOPadIOVdd

.subckt sg13g2_DCIO10000 vss vdd iovss iovdd
Xbp_vss vss BondPad
Xio_vss vss sg13g2_IOPadVss
Xbp_vdd vdd BondPad
Xio_vdd vdd sg13g2_IOPadVdd
Xbp_iovss iovss BondPad
Xio_iovss iovss sg13g2_IOPadIOVss
Xbp_iovdd iovdd BondPad
Xio_iovdd iovdd sg13g2_IOPadIOVdd
Xfill_start  sg13g2_Filler10000
Xfill_vss  sg13g2_Filler10000
Xfill_vdd  sg13g2_Filler10000
Xfill_iovss  sg13g2_Filler10000
Xfill_iovdd  sg13g2_Filler10000
.ends sg13g2_DCIO10000

.subckt SP6T1Cell vss substrate vdd nwell wl bl bl_n
Xpu1 vdd bit_n bit nwell sg13_lv_pmos l=1.3e-07 w=1.5e-07
Xpd1 bit bit_n vss substrate sg13_lv_nmos l=1.3e-07 w=2e-07
Xpu2 vdd bit bit_n nwell sg13_lv_pmos l=1.3e-07 w=1.5e-07
Xpd2 bit_n bit vss substrate sg13_lv_nmos l=1.3e-07 w=2e-07
Xpg1 bit wl bl substrate sg13_lv_nmos l=1.3e-07 w=2e-07
Xpg2 bit_n wl bl_n substrate sg13_lv_nmos l=1.3e-07 w=2e-07
.ends SP6T1Cell

.subckt SP6T1Array_2X1 vss substrate vdd nwell wl[0] wl[1] bl[0] bl_n[0]
Xinst0x0 vss substrate vdd nwell wl[0] bl[0] bl_n[0] SP6T1Cell
Xinst1x0 vss substrate vdd nwell wl[1] bl[0] bl_n[0] SP6T1Cell
.ends SP6T1Array_2X1

.subckt SP6T1Array_2X2 vss substrate vdd nwell wl[0] wl[1] bl[0] bl_n[0] bl[1] bl_n[1]
Xinst0x0 vss substrate vdd nwell wl[0] wl[1] bl[0] bl_n[0] SP6T1Array_2X1
Xinst0x1 vss substrate vdd nwell wl[0] wl[1] bl[1] bl_n[1] SP6T1Array_2X1
.ends SP6T1Array_2X2

.subckt SP6T1Array_4X2 vss substrate vdd nwell wl[0] wl[1] wl[2] wl[3] bl[0] bl_n[0] bl[1] bl_n[1]
Xinst0x0 vss substrate vdd nwell wl[0] wl[1] bl[0] bl_n[0] bl[1] bl_n[1] SP6T1Array_2X2
Xinst1x0 vss substrate vdd nwell wl[2] wl[3] bl[0] bl_n[0] bl[1] bl_n[1] SP6T1Array_2X2
.ends SP6T1Array_4X2

.subckt SP6T1Array_4X4 vss substrate vdd nwell wl[0] wl[1] wl[2] wl[3] bl[0] bl_n[0] bl[1] bl_n[1] bl[2] bl_n[2] bl[3] bl_n[3]
Xinst0x0 vss substrate vdd nwell wl[0] wl[1] wl[2] wl[3] bl[0] bl_n[0] bl[1] bl_n[1] SP6T1Array_4X2
Xinst0x1 vss substrate vdd nwell wl[0] wl[1] wl[2] wl[3] bl[2] bl_n[2] bl[3] bl_n[3] SP6T1Array_4X2
.ends SP6T1Array_4X4

.subckt SP6T1Array_8X4 vss substrate vdd nwell wl[0] wl[1] wl[2] wl[3] wl[4] wl[5] wl[6] wl[7] bl[0] bl_n[0] bl[1] bl_n[1] bl[2] bl_n[2] bl[3] bl_n[3]
Xinst0x0 vss substrate vdd nwell wl[0] wl[1] wl[2] wl[3] bl[0] bl_n[0] bl[1] bl_n[1] bl[2] bl_n[2] bl[3] bl_n[3] SP6T1Array_4X4
Xinst1x0 vss substrate vdd nwell wl[4] wl[5] wl[6] wl[7] bl[0] bl_n[0] bl[1] bl_n[1] bl[2] bl_n[2] bl[3] bl_n[3] SP6T1Array_4X4
.ends SP6T1Array_8X4

.subckt SP6T1Array_8X8 vss substrate vdd nwell wl[0] wl[1] wl[2] wl[3] wl[4] wl[5] wl[6] wl[7] bl[0] bl_n[0] bl[1] bl_n[1] bl[2] bl_n[2] bl[3] bl_n[3] bl[4] bl_n[4] bl[5] bl_n[5] bl[6] bl_n[6] bl[7] bl_n[7]
Xinst0x0 vss substrate vdd nwell wl[0] wl[1] wl[2] wl[3] wl[4] wl[5] wl[6] wl[7] bl[0] bl_n[0] bl[1] bl_n[1] bl[2] bl_n[2] bl[3] bl_n[3] SP6T1Array_8X4
Xinst0x1 vss substrate vdd nwell wl[0] wl[1] wl[2] wl[3] wl[4] wl[5] wl[6] wl[7] bl[4] bl_n[4] bl[5] bl_n[5] bl[6] bl_n[6] bl[7] bl_n[7] SP6T1Array_8X4
.ends SP6T1Array_8X8

.subckt SP6T1Array_16X8 vss substrate vdd nwell wl[0] wl[1] wl[2] wl[3] wl[4] wl[5] wl[6] wl[7] wl[8] wl[9] wl[10] wl[11] wl[12] wl[13] wl[14] wl[15] bl[0] bl_n[0] bl[1] bl_n[1] bl[2] bl_n[2] bl[3] bl_n[3] bl[4] bl_n[4] bl[5] bl_n[5] bl[6] bl_n[6] bl[7] bl_n[7]
Xinst0x0 vss substrate vdd nwell wl[0] wl[1] wl[2] wl[3] wl[4] wl[5] wl[6] wl[7] bl[0] bl_n[0] bl[1] bl_n[1] bl[2] bl_n[2] bl[3] bl_n[3] bl[4] bl_n[4] bl[5] bl_n[5] bl[6] bl_n[6] bl[7] bl_n[7] SP6T1Array_8X8
Xinst1x0 vss substrate vdd nwell wl[8] wl[9] wl[10] wl[11] wl[12] wl[13] wl[14] wl[15] bl[0] bl_n[0] bl[1] bl_n[1] bl[2] bl_n[2] bl[3] bl_n[3] bl[4] bl_n[4] bl[5] bl_n[5] bl[6] bl_n[6] bl[7] bl_n[7] SP6T1Array_8X8
.ends SP6T1Array_16X8

.subckt SP6T1Array_16X16 vss substrate vdd nwell wl[0] wl[1] wl[2] wl[3] wl[4] wl[5] wl[6] wl[7] wl[8] wl[9] wl[10] wl[11] wl[12] wl[13] wl[14] wl[15] bl[0] bl_n[0] bl[1] bl_n[1] bl[2] bl_n[2] bl[3] bl_n[3] bl[4] bl_n[4] bl[5] bl_n[5] bl[6] bl_n[6] bl[7] bl_n[7] bl[8] bl_n[8] bl[9] bl_n[9] bl[10] bl_n[10] bl[11] bl_n[11] bl[12] bl_n[12] bl[13] bl_n[13] bl[14] bl_n[14] bl[15] bl_n[15]
Xinst0x0 vss substrate vdd nwell wl[0] wl[1] wl[2] wl[3] wl[4] wl[5] wl[6] wl[7] wl[8] wl[9] wl[10] wl[11] wl[12] wl[13] wl[14] wl[15] bl[0] bl_n[0] bl[1] bl_n[1] bl[2] bl_n[2] bl[3] bl_n[3] bl[4] bl_n[4] bl[5] bl_n[5] bl[6] bl_n[6] bl[7] bl_n[7] SP6T1Array_16X8
Xinst0x1 vss substrate vdd nwell wl[0] wl[1] wl[2] wl[3] wl[4] wl[5] wl[6] wl[7] wl[8] wl[9] wl[10] wl[11] wl[12] wl[13] wl[14] wl[15] bl[8] bl_n[8] bl[9] bl_n[9] bl[10] bl_n[10] bl[11] bl_n[11] bl[12] bl_n[12] bl[13] bl_n[13] bl[14] bl_n[14] bl[15] bl_n[15] SP6T1Array_16X8
.ends SP6T1Array_16X16

.subckt SP6T1Array_16X32 vss substrate vdd nwell wl[0] wl[1] wl[2] wl[3] wl[4] wl[5] wl[6] wl[7] wl[8] wl[9] wl[10] wl[11] wl[12] wl[13] wl[14] wl[15] bl[0] bl_n[0] bl[1] bl_n[1] bl[2] bl_n[2] bl[3] bl_n[3] bl[4] bl_n[4] bl[5] bl_n[5] bl[6] bl_n[6] bl[7] bl_n[7] bl[8] bl_n[8] bl[9] bl_n[9] bl[10] bl_n[10] bl[11] bl_n[11] bl[12] bl_n[12] bl[13] bl_n[13] bl[14] bl_n[14] bl[15] bl_n[15] bl[16] bl_n[16] bl[17] bl_n[17] bl[18] bl_n[18] bl[19] bl_n[19] bl[20] bl_n[20] bl[21] bl_n[21] bl[22] bl_n[22] bl[23] bl_n[23] bl[24] bl_n[24] bl[25] bl_n[25] bl[26] bl_n[26] bl[27] bl_n[27] bl[28] bl_n[28] bl[29] bl_n[29] bl[30] bl_n[30] bl[31] bl_n[31]
Xinst0x0 vss substrate vdd nwell wl[0] wl[1] wl[2] wl[3] wl[4] wl[5] wl[6] wl[7] wl[8] wl[9] wl[10] wl[11] wl[12] wl[13] wl[14] wl[15] bl[0] bl_n[0] bl[1] bl_n[1] bl[2] bl_n[2] bl[3] bl_n[3] bl[4] bl_n[4] bl[5] bl_n[5] bl[6] bl_n[6] bl[7] bl_n[7] bl[8] bl_n[8] bl[9] bl_n[9] bl[10] bl_n[10] bl[11] bl_n[11] bl[12] bl_n[12] bl[13] bl_n[13] bl[14] bl_n[14] bl[15] bl_n[15] SP6T1Array_16X16
Xinst0x1 vss substrate vdd nwell wl[0] wl[1] wl[2] wl[3] wl[4] wl[5] wl[6] wl[7] wl[8] wl[9] wl[10] wl[11] wl[12] wl[13] wl[14] wl[15] bl[16] bl_n[16] bl[17] bl_n[17] bl[18] bl_n[18] bl[19] bl_n[19] bl[20] bl_n[20] bl[21] bl_n[21] bl[22] bl_n[22] bl[23] bl_n[23] bl[24] bl_n[24] bl[25] bl_n[25] bl[26] bl_n[26] bl[27] bl_n[27] bl[28] bl_n[28] bl[29] bl_n[29] bl[30] bl_n[30] bl[31] bl_n[31] SP6T1Array_16X16
.ends SP6T1Array_16X32

.subckt SP6T1BulkConn vdd vss bl bl_n
.ends SP6T1BulkConn

.subckt SP6T1BulkConnRow_2C vss vdd bl[0] bl_n[0] bl[1] bl_n[1]
Xinst0 vdd vss bl[0] bl_n[0] SP6T1BulkConn
Xinst1 vdd vss bl[1] bl_n[1] SP6T1BulkConn
.ends SP6T1BulkConnRow_2C

.subckt SP6T1BulkConnRow_4C vss vdd bl[0] bl_n[0] bl[1] bl_n[1] bl[2] bl_n[2] bl[3] bl_n[3]
Xinst0 vss vdd bl[0] bl_n[0] bl[1] bl_n[1] SP6T1BulkConnRow_2C
Xinst1 vss vdd bl[2] bl_n[2] bl[3] bl_n[3] SP6T1BulkConnRow_2C
.ends SP6T1BulkConnRow_4C

.subckt SP6T1BulkConnRow_8C vss vdd bl[0] bl_n[0] bl[1] bl_n[1] bl[2] bl_n[2] bl[3] bl_n[3] bl[4] bl_n[4] bl[5] bl_n[5] bl[6] bl_n[6] bl[7] bl_n[7]
Xinst0 vss vdd bl[0] bl_n[0] bl[1] bl_n[1] bl[2] bl_n[2] bl[3] bl_n[3] SP6T1BulkConnRow_4C
Xinst1 vss vdd bl[4] bl_n[4] bl[5] bl_n[5] bl[6] bl_n[6] bl[7] bl_n[7] SP6T1BulkConnRow_4C
.ends SP6T1BulkConnRow_8C

.subckt SP6T1BulkConnRow_16C vss vdd bl[0] bl_n[0] bl[1] bl_n[1] bl[2] bl_n[2] bl[3] bl_n[3] bl[4] bl_n[4] bl[5] bl_n[5] bl[6] bl_n[6] bl[7] bl_n[7] bl[8] bl_n[8] bl[9] bl_n[9] bl[10] bl_n[10] bl[11] bl_n[11] bl[12] bl_n[12] bl[13] bl_n[13] bl[14] bl_n[14] bl[15] bl_n[15]
Xinst0 vss vdd bl[0] bl_n[0] bl[1] bl_n[1] bl[2] bl_n[2] bl[3] bl_n[3] bl[4] bl_n[4] bl[5] bl_n[5] bl[6] bl_n[6] bl[7] bl_n[7] SP6T1BulkConnRow_8C
Xinst1 vss vdd bl[8] bl_n[8] bl[9] bl_n[9] bl[10] bl_n[10] bl[11] bl_n[11] bl[12] bl_n[12] bl[13] bl_n[13] bl[14] bl_n[14] bl[15] bl_n[15] SP6T1BulkConnRow_8C
.ends SP6T1BulkConnRow_16C

.subckt SP6T1BulkConnRow_32C vss vdd bl[0] bl_n[0] bl[1] bl_n[1] bl[2] bl_n[2] bl[3] bl_n[3] bl[4] bl_n[4] bl[5] bl_n[5] bl[6] bl_n[6] bl[7] bl_n[7] bl[8] bl_n[8] bl[9] bl_n[9] bl[10] bl_n[10] bl[11] bl_n[11] bl[12] bl_n[12] bl[13] bl_n[13] bl[14] bl_n[14] bl[15] bl_n[15] bl[16] bl_n[16] bl[17] bl_n[17] bl[18] bl_n[18] bl[19] bl_n[19] bl[20] bl_n[20] bl[21] bl_n[21] bl[22] bl_n[22] bl[23] bl_n[23] bl[24] bl_n[24] bl[25] bl_n[25] bl[26] bl_n[26] bl[27] bl_n[27] bl[28] bl_n[28] bl[29] bl_n[29] bl[30] bl_n[30] bl[31] bl_n[31]
Xinst0 vss vdd bl[0] bl_n[0] bl[1] bl_n[1] bl[2] bl_n[2] bl[3] bl_n[3] bl[4] bl_n[4] bl[5] bl_n[5] bl[6] bl_n[6] bl[7] bl_n[7] bl[8] bl_n[8] bl[9] bl_n[9] bl[10] bl_n[10] bl[11] bl_n[11] bl[12] bl_n[12] bl[13] bl_n[13] bl[14] bl_n[14] bl[15] bl_n[15] SP6T1BulkConnRow_16C
Xinst1 vss vdd bl[16] bl_n[16] bl[17] bl_n[17] bl[18] bl_n[18] bl[19] bl_n[19] bl[20] bl_n[20] bl[21] bl_n[21] bl[22] bl_n[22] bl[23] bl_n[23] bl[24] bl_n[24] bl[25] bl_n[25] bl[26] bl_n[26] bl[27] bl_n[27] bl[28] bl_n[28] bl[29] bl_n[29] bl[30] bl_n[30] bl[31] bl_n[31] SP6T1BulkConnRow_16C
.ends SP6T1BulkConnRow_32C

.subckt SP6T1Array_32X32 vss vdd wl[0] wl[1] wl[2] wl[3] wl[4] wl[5] wl[6] wl[7] wl[8] wl[9] wl[10] wl[11] wl[12] wl[13] wl[14] wl[15] wl[16] wl[17] wl[18] wl[19] wl[20] wl[21] wl[22] wl[23] wl[24] wl[25] wl[26] wl[27] wl[28] wl[29] wl[30] wl[31] bl[0] bl_n[0] bl[1] bl_n[1] bl[2] bl_n[2] bl[3] bl_n[3] bl[4] bl_n[4] bl[5] bl_n[5] bl[6] bl_n[6] bl[7] bl_n[7] bl[8] bl_n[8] bl[9] bl_n[9] bl[10] bl_n[10] bl[11] bl_n[11] bl[12] bl_n[12] bl[13] bl_n[13] bl[14] bl_n[14] bl[15] bl_n[15] bl[16] bl_n[16] bl[17] bl_n[17] bl[18] bl_n[18] bl[19] bl_n[19] bl[20] bl_n[20] bl[21] bl_n[21] bl[22] bl_n[22] bl[23] bl_n[23] bl[24] bl_n[24] bl[25] bl_n[25] bl[26] bl_n[26] bl[27] bl_n[27] bl[28] bl_n[28] bl[29] bl_n[29] bl[30] bl_n[30] bl[31] bl_n[31]
Xinst0x0 vss vss vdd vdd wl[0] wl[1] wl[2] wl[3] wl[4] wl[5] wl[6] wl[7] wl[8] wl[9] wl[10] wl[11] wl[12] wl[13] wl[14] wl[15] bl[0] bl_n[0] bl[1] bl_n[1] bl[2] bl_n[2] bl[3] bl_n[3] bl[4] bl_n[4] bl[5] bl_n[5] bl[6] bl_n[6] bl[7] bl_n[7] bl[8] bl_n[8] bl[9] bl_n[9] bl[10] bl_n[10] bl[11] bl_n[11] bl[12] bl_n[12] bl[13] bl_n[13] bl[14] bl_n[14] bl[15] bl_n[15] bl[16] bl_n[16] bl[17] bl_n[17] bl[18] bl_n[18] bl[19] bl_n[19] bl[20] bl_n[20] bl[21] bl_n[21] bl[22] bl_n[22] bl[23] bl_n[23] bl[24] bl_n[24] bl[25] bl_n[25] bl[26] bl_n[26] bl[27] bl_n[27] bl[28] bl_n[28] bl[29] bl_n[29] bl[30] bl_n[30] bl[31] bl_n[31] SP6T1Array_16X32
Xinst1x0 vss vss vdd vdd wl[16] wl[17] wl[18] wl[19] wl[20] wl[21] wl[22] wl[23] wl[24] wl[25] wl[26] wl[27] wl[28] wl[29] wl[30] wl[31] bl[0] bl_n[0] bl[1] bl_n[1] bl[2] bl_n[2] bl[3] bl_n[3] bl[4] bl_n[4] bl[5] bl_n[5] bl[6] bl_n[6] bl[7] bl_n[7] bl[8] bl_n[8] bl[9] bl_n[9] bl[10] bl_n[10] bl[11] bl_n[11] bl[12] bl_n[12] bl[13] bl_n[13] bl[14] bl_n[14] bl[15] bl_n[15] bl[16] bl_n[16] bl[17] bl_n[17] bl[18] bl_n[18] bl[19] bl_n[19] bl[20] bl_n[20] bl[21] bl_n[21] bl[22] bl_n[22] bl[23] bl_n[23] bl[24] bl_n[24] bl[25] bl_n[25] bl[26] bl_n[26] bl[27] bl_n[27] bl[28] bl_n[28] bl[29] bl_n[29] bl[30] bl_n[30] bl[31] bl_n[31] SP6T1Array_16X32
Xbcrow vss vdd bl[0] bl_n[0] bl[1] bl_n[1] bl[2] bl_n[2] bl[3] bl_n[3] bl[4] bl_n[4] bl[5] bl_n[5] bl[6] bl_n[6] bl[7] bl_n[7] bl[8] bl_n[8] bl[9] bl_n[9] bl[10] bl_n[10] bl[11] bl_n[11] bl[12] bl_n[12] bl[13] bl_n[13] bl[14] bl_n[14] bl[15] bl_n[15] bl[16] bl_n[16] bl[17] bl_n[17] bl[18] bl_n[18] bl[19] bl_n[19] bl[20] bl_n[20] bl[21] bl_n[21] bl[22] bl_n[22] bl[23] bl_n[23] bl[24] bl_n[24] bl[25] bl_n[25] bl[26] bl_n[26] bl[27] bl_n[27] bl[28] bl_n[28] bl[29] bl_n[29] bl[30] bl_n[30] bl[31] bl_n[31] SP6T1BulkConnRow_32C
.ends SP6T1Array_32X32

.subckt SP6T1Array_64X32 vss vdd wl[0] wl[1] wl[2] wl[3] wl[4] wl[5] wl[6] wl[7] wl[8] wl[9] wl[10] wl[11] wl[12] wl[13] wl[14] wl[15] wl[16] wl[17] wl[18] wl[19] wl[20] wl[21] wl[22] wl[23] wl[24] wl[25] wl[26] wl[27] wl[28] wl[29] wl[30] wl[31] wl[32] wl[33] wl[34] wl[35] wl[36] wl[37] wl[38] wl[39] wl[40] wl[41] wl[42] wl[43] wl[44] wl[45] wl[46] wl[47] wl[48] wl[49] wl[50] wl[51] wl[52] wl[53] wl[54] wl[55] wl[56] wl[57] wl[58] wl[59] wl[60] wl[61] wl[62] wl[63] bl[0] bl_n[0] bl[1] bl_n[1] bl[2] bl_n[2] bl[3] bl_n[3] bl[4] bl_n[4] bl[5] bl_n[5] bl[6] bl_n[6] bl[7] bl_n[7] bl[8] bl_n[8] bl[9] bl_n[9] bl[10] bl_n[10] bl[11] bl_n[11] bl[12] bl_n[12] bl[13] bl_n[13] bl[14] bl_n[14] bl[15] bl_n[15] bl[16] bl_n[16] bl[17] bl_n[17] bl[18] bl_n[18] bl[19] bl_n[19] bl[20] bl_n[20] bl[21] bl_n[21] bl[22] bl_n[22] bl[23] bl_n[23] bl[24] bl_n[24] bl[25] bl_n[25] bl[26] bl_n[26] bl[27] bl_n[27] bl[28] bl_n[28] bl[29] bl_n[29] bl[30] bl_n[30] bl[31] bl_n[31]
Xinst0x0 vss vdd wl[0] wl[1] wl[2] wl[3] wl[4] wl[5] wl[6] wl[7] wl[8] wl[9] wl[10] wl[11] wl[12] wl[13] wl[14] wl[15] wl[16] wl[17] wl[18] wl[19] wl[20] wl[21] wl[22] wl[23] wl[24] wl[25] wl[26] wl[27] wl[28] wl[29] wl[30] wl[31] bl[0] bl_n[0] bl[1] bl_n[1] bl[2] bl_n[2] bl[3] bl_n[3] bl[4] bl_n[4] bl[5] bl_n[5] bl[6] bl_n[6] bl[7] bl_n[7] bl[8] bl_n[8] bl[9] bl_n[9] bl[10] bl_n[10] bl[11] bl_n[11] bl[12] bl_n[12] bl[13] bl_n[13] bl[14] bl_n[14] bl[15] bl_n[15] bl[16] bl_n[16] bl[17] bl_n[17] bl[18] bl_n[18] bl[19] bl_n[19] bl[20] bl_n[20] bl[21] bl_n[21] bl[22] bl_n[22] bl[23] bl_n[23] bl[24] bl_n[24] bl[25] bl_n[25] bl[26] bl_n[26] bl[27] bl_n[27] bl[28] bl_n[28] bl[29] bl_n[29] bl[30] bl_n[30] bl[31] bl_n[31] SP6T1Array_32X32
Xinst1x0 vss vdd wl[32] wl[33] wl[34] wl[35] wl[36] wl[37] wl[38] wl[39] wl[40] wl[41] wl[42] wl[43] wl[44] wl[45] wl[46] wl[47] wl[48] wl[49] wl[50] wl[51] wl[52] wl[53] wl[54] wl[55] wl[56] wl[57] wl[58] wl[59] wl[60] wl[61] wl[62] wl[63] bl[0] bl_n[0] bl[1] bl_n[1] bl[2] bl_n[2] bl[3] bl_n[3] bl[4] bl_n[4] bl[5] bl_n[5] bl[6] bl_n[6] bl[7] bl_n[7] bl[8] bl_n[8] bl[9] bl_n[9] bl[10] bl_n[10] bl[11] bl_n[11] bl[12] bl_n[12] bl[13] bl_n[13] bl[14] bl_n[14] bl[15] bl_n[15] bl[16] bl_n[16] bl[17] bl_n[17] bl[18] bl_n[18] bl[19] bl_n[19] bl[20] bl_n[20] bl[21] bl_n[21] bl[22] bl_n[22] bl[23] bl_n[23] bl[24] bl_n[24] bl[25] bl_n[25] bl[26] bl_n[26] bl[27] bl_n[27] bl[28] bl_n[28] bl[29] bl_n[29] bl[30] bl_n[30] bl[31] bl_n[31] SP6T1Array_32X32
Xbcrow vss vdd bl[0] bl_n[0] bl[1] bl_n[1] bl[2] bl_n[2] bl[3] bl_n[3] bl[4] bl_n[4] bl[5] bl_n[5] bl[6] bl_n[6] bl[7] bl_n[7] bl[8] bl_n[8] bl[9] bl_n[9] bl[10] bl_n[10] bl[11] bl_n[11] bl[12] bl_n[12] bl[13] bl_n[13] bl[14] bl_n[14] bl[15] bl_n[15] bl[16] bl_n[16] bl[17] bl_n[17] bl[18] bl_n[18] bl[19] bl_n[19] bl[20] bl_n[20] bl[21] bl_n[21] bl[22] bl_n[22] bl[23] bl_n[23] bl[24] bl_n[24] bl[25] bl_n[25] bl[26] bl_n[26] bl[27] bl_n[27] bl[28] bl_n[28] bl[29] bl_n[29] bl[30] bl_n[30] bl[31] bl_n[31] SP6T1BulkConnRow_32C
.ends SP6T1Array_64X32

.subckt SP6T1Array_128X32BC vss vdd wl[0] wl[1] wl[2] wl[3] wl[4] wl[5] wl[6] wl[7] wl[8] wl[9] wl[10] wl[11] wl[12] wl[13] wl[14] wl[15] wl[16] wl[17] wl[18] wl[19] wl[20] wl[21] wl[22] wl[23] wl[24] wl[25] wl[26] wl[27] wl[28] wl[29] wl[30] wl[31] wl[32] wl[33] wl[34] wl[35] wl[36] wl[37] wl[38] wl[39] wl[40] wl[41] wl[42] wl[43] wl[44] wl[45] wl[46] wl[47] wl[48] wl[49] wl[50] wl[51] wl[52] wl[53] wl[54] wl[55] wl[56] wl[57] wl[58] wl[59] wl[60] wl[61] wl[62] wl[63] wl[64] wl[65] wl[66] wl[67] wl[68] wl[69] wl[70] wl[71] wl[72] wl[73] wl[74] wl[75] wl[76] wl[77] wl[78] wl[79] wl[80] wl[81] wl[82] wl[83] wl[84] wl[85] wl[86] wl[87] wl[88] wl[89] wl[90] wl[91] wl[92] wl[93] wl[94] wl[95] wl[96] wl[97] wl[98] wl[99] wl[100] wl[101] wl[102] wl[103] wl[104] wl[105] wl[106] wl[107] wl[108] wl[109] wl[110] wl[111] wl[112] wl[113] wl[114] wl[115] wl[116] wl[117] wl[118] wl[119] wl[120] wl[121] wl[122] wl[123] wl[124] wl[125] wl[126] wl[127] bl[0] bl_n[0] bl[1] bl_n[1] bl[2] bl_n[2] bl[3] bl_n[3] bl[4] bl_n[4] bl[5] bl_n[5] bl[6] bl_n[6] bl[7] bl_n[7] bl[8] bl_n[8] bl[9] bl_n[9] bl[10] bl_n[10] bl[11] bl_n[11] bl[12] bl_n[12] bl[13] bl_n[13] bl[14] bl_n[14] bl[15] bl_n[15] bl[16] bl_n[16] bl[17] bl_n[17] bl[18] bl_n[18] bl[19] bl_n[19] bl[20] bl_n[20] bl[21] bl_n[21] bl[22] bl_n[22] bl[23] bl_n[23] bl[24] bl_n[24] bl[25] bl_n[25] bl[26] bl_n[26] bl[27] bl_n[27] bl[28] bl_n[28] bl[29] bl_n[29] bl[30] bl_n[30] bl[31] bl_n[31]
Xinst0x0 vss vdd wl[0] wl[1] wl[2] wl[3] wl[4] wl[5] wl[6] wl[7] wl[8] wl[9] wl[10] wl[11] wl[12] wl[13] wl[14] wl[15] wl[16] wl[17] wl[18] wl[19] wl[20] wl[21] wl[22] wl[23] wl[24] wl[25] wl[26] wl[27] wl[28] wl[29] wl[30] wl[31] wl[32] wl[33] wl[34] wl[35] wl[36] wl[37] wl[38] wl[39] wl[40] wl[41] wl[42] wl[43] wl[44] wl[45] wl[46] wl[47] wl[48] wl[49] wl[50] wl[51] wl[52] wl[53] wl[54] wl[55] wl[56] wl[57] wl[58] wl[59] wl[60] wl[61] wl[62] wl[63] bl[0] bl_n[0] bl[1] bl_n[1] bl[2] bl_n[2] bl[3] bl_n[3] bl[4] bl_n[4] bl[5] bl_n[5] bl[6] bl_n[6] bl[7] bl_n[7] bl[8] bl_n[8] bl[9] bl_n[9] bl[10] bl_n[10] bl[11] bl_n[11] bl[12] bl_n[12] bl[13] bl_n[13] bl[14] bl_n[14] bl[15] bl_n[15] bl[16] bl_n[16] bl[17] bl_n[17] bl[18] bl_n[18] bl[19] bl_n[19] bl[20] bl_n[20] bl[21] bl_n[21] bl[22] bl_n[22] bl[23] bl_n[23] bl[24] bl_n[24] bl[25] bl_n[25] bl[26] bl_n[26] bl[27] bl_n[27] bl[28] bl_n[28] bl[29] bl_n[29] bl[30] bl_n[30] bl[31] bl_n[31] SP6T1Array_64X32
Xinst1x0 vss vdd wl[64] wl[65] wl[66] wl[67] wl[68] wl[69] wl[70] wl[71] wl[72] wl[73] wl[74] wl[75] wl[76] wl[77] wl[78] wl[79] wl[80] wl[81] wl[82] wl[83] wl[84] wl[85] wl[86] wl[87] wl[88] wl[89] wl[90] wl[91] wl[92] wl[93] wl[94] wl[95] wl[96] wl[97] wl[98] wl[99] wl[100] wl[101] wl[102] wl[103] wl[104] wl[105] wl[106] wl[107] wl[108] wl[109] wl[110] wl[111] wl[112] wl[113] wl[114] wl[115] wl[116] wl[117] wl[118] wl[119] wl[120] wl[121] wl[122] wl[123] wl[124] wl[125] wl[126] wl[127] bl[0] bl_n[0] bl[1] bl_n[1] bl[2] bl_n[2] bl[3] bl_n[3] bl[4] bl_n[4] bl[5] bl_n[5] bl[6] bl_n[6] bl[7] bl_n[7] bl[8] bl_n[8] bl[9] bl_n[9] bl[10] bl_n[10] bl[11] bl_n[11] bl[12] bl_n[12] bl[13] bl_n[13] bl[14] bl_n[14] bl[15] bl_n[15] bl[16] bl_n[16] bl[17] bl_n[17] bl[18] bl_n[18] bl[19] bl_n[19] bl[20] bl_n[20] bl[21] bl_n[21] bl[22] bl_n[22] bl[23] bl_n[23] bl[24] bl_n[24] bl[25] bl_n[25] bl[26] bl_n[26] bl[27] bl_n[27] bl[28] bl_n[28] bl[29] bl_n[29] bl[30] bl_n[30] bl[31] bl_n[31] SP6T1Array_64X32
Xbcrow vss vdd bl[0] bl_n[0] bl[1] bl_n[1] bl[2] bl_n[2] bl[3] bl_n[3] bl[4] bl_n[4] bl[5] bl_n[5] bl[6] bl_n[6] bl[7] bl_n[7] bl[8] bl_n[8] bl[9] bl_n[9] bl[10] bl_n[10] bl[11] bl_n[11] bl[12] bl_n[12] bl[13] bl_n[13] bl[14] bl_n[14] bl[15] bl_n[15] bl[16] bl_n[16] bl[17] bl_n[17] bl[18] bl_n[18] bl[19] bl_n[19] bl[20] bl_n[20] bl[21] bl_n[21] bl[22] bl_n[22] bl[23] bl_n[23] bl[24] bl_n[24] bl[25] bl_n[25] bl[26] bl_n[26] bl[27] bl_n[27] bl[28] bl_n[28] bl[29] bl_n[29] bl[30] bl_n[30] bl[31] bl_n[31] SP6T1BulkConnRow_32C
Xbottombcrow vss vdd bl[0] bl_n[0] bl[1] bl_n[1] bl[2] bl_n[2] bl[3] bl_n[3] bl[4] bl_n[4] bl[5] bl_n[5] bl[6] bl_n[6] bl[7] bl_n[7] bl[8] bl_n[8] bl[9] bl_n[9] bl[10] bl_n[10] bl[11] bl_n[11] bl[12] bl_n[12] bl[13] bl_n[13] bl[14] bl_n[14] bl[15] bl_n[15] bl[16] bl_n[16] bl[17] bl_n[17] bl[18] bl_n[18] bl[19] bl_n[19] bl[20] bl_n[20] bl[21] bl_n[21] bl[22] bl_n[22] bl[23] bl_n[23] bl[24] bl_n[24] bl[25] bl_n[25] bl[26] bl_n[26] bl[27] bl_n[27] bl[28] bl_n[28] bl[29] bl_n[29] bl[30] bl_n[30] bl[31] bl_n[31] SP6T1BulkConnRow_32C
Xtopbcrow vss vdd bl[0] bl_n[0] bl[1] bl_n[1] bl[2] bl_n[2] bl[3] bl_n[3] bl[4] bl_n[4] bl[5] bl_n[5] bl[6] bl_n[6] bl[7] bl_n[7] bl[8] bl_n[8] bl[9] bl_n[9] bl[10] bl_n[10] bl[11] bl_n[11] bl[12] bl_n[12] bl[13] bl_n[13] bl[14] bl_n[14] bl[15] bl_n[15] bl[16] bl_n[16] bl[17] bl_n[17] bl[18] bl_n[18] bl[19] bl_n[19] bl[20] bl_n[20] bl[21] bl_n[21] bl[22] bl_n[22] bl[23] bl_n[23] bl[24] bl_n[24] bl[25] bl_n[25] bl[26] bl_n[26] bl[27] bl_n[27] bl[28] bl_n[28] bl[29] bl_n[29] bl[30] bl_n[30] bl[31] bl_n[31] SP6T1BulkConnRow_32C
.ends SP6T1Array_128X32BC

.subckt SP6T1Precharge_26L100W vdd nwell bl bl_n precharge_n
Xpc1 vdd precharge_n bl nwell sg13_lv_pmos l=1.3e-07 w=5e-07
Xpc2 bl precharge_n bl_n nwell sg13_lv_pmos l=1.3e-07 w=5e-07
Xpc3 bl_n precharge_n vdd nwell sg13_lv_pmos l=1.3e-07 w=5e-07
.ends SP6T1Precharge_26L100W

.subckt SP6T1ColMux_4MN26L580W1R bl[0] bl_n[0] mux[0] bl[1] bl_n[1] mux[1] bl[2] bl_n[2] mux[2] bl[3] bl_n[3] mux[3] vss muxbl muxbl_n
Xpgbl0 muxbl mux[0] bl[0] vss sg13_lv_nmos l=1.3e-07 w=2.9e-06
Xpgbln0 bl_n[0] mux[0] muxbl_n vss sg13_lv_nmos l=1.3e-07 w=2.9e-06
Xpgbl1 bl[1] mux[1] muxbl vss sg13_lv_nmos l=1.3e-07 w=2.9e-06
Xpgbln1 muxbl_n mux[1] bl_n[1] vss sg13_lv_nmos l=1.3e-07 w=2.9e-06
Xpgbl2 muxbl mux[2] bl[2] vss sg13_lv_nmos l=1.3e-07 w=2.9e-06
Xpgbln2 bl_n[2] mux[2] muxbl_n vss sg13_lv_nmos l=1.3e-07 w=2.9e-06
Xpgbl3 bl[3] mux[3] muxbl vss sg13_lv_nmos l=1.3e-07 w=2.9e-06
Xpgbln3 muxbl_n mux[3] bl_n[3] vss sg13_lv_nmos l=1.3e-07 w=2.9e-06
.ends SP6T1ColMux_4MN26L580W1R

.subckt nsnrlatch_x1 vdd vss nset nrst q nq
Xnset_nmos q nset _net0 vss sg13_lv_nmos l=1.3e-07 w=1.31e-06
Xnset_pmos vdd nset q vdd sg13_lv_pmos l=1.3e-07 w=1.3e-06
Xnq_nmos _net0 nq vss vss sg13_lv_nmos l=1.3e-07 w=1.31e-06
Xnq_pmos q nq vdd vdd sg13_lv_pmos l=1.3e-07 w=1.3e-06
Xq_nmos vss q _net1 vss sg13_lv_nmos l=1.3e-07 w=1.31e-06
Xq_pmos vdd q nq vdd sg13_lv_pmos l=1.3e-07 w=1.3e-06
Xnrst_nmos _net1 nrst nq vss sg13_lv_nmos l=1.3e-07 w=1.31e-06
Xnrst_pmos nq nrst vdd vdd sg13_lv_pmos l=1.3e-07 w=1.3e-06
.ends nsnrlatch_x1

.subckt dff_x1 vdd vss i clk q
Xclk_nmos _clk_n clk vss vss sg13_lv_nmos l=1.3e-07 w=7.8e-07
Xclk_pmos _clk_n clk vdd vdd sg13_lv_pmos l=1.3e-07 w=7.8e-07
Xclk_n_nmos0 vss _clk_n _clk_buf vss sg13_lv_nmos l=1.3e-07 w=7.8e-07
Xclk_n_pmos0 vdd _clk_n _clk_buf vdd sg13_lv_pmos l=1.3e-07 w=7.8e-07
Xi_nmos _u i vss vss sg13_lv_nmos l=1.3e-07 w=7.8e-07
Xi_pmos _u i vdd vdd sg13_lv_pmos l=1.3e-07 w=7.8e-07
Xu_nmos vss _u _net0 vss sg13_lv_nmos l=1.3e-07 w=7.8e-07
Xu_pmos vdd _u _net1 vdd sg13_lv_pmos l=1.3e-07 w=7.8e-07
Xclk_n_nmos1 _net0 _clk_n _dff_m vss sg13_lv_nmos l=1.3e-07 w=7.8e-07
Xclk_buf_pmos0 _net1 _clk_buf _dff_m vdd sg13_lv_pmos l=1.3e-07 w=7.8e-07
Xclk_buf_nmos0 _dff_m _clk_buf _net2 vss sg13_lv_nmos l=1.3e-07 w=7.8e-07
Xclk_n_pmos1 _dff_m _clk_n _net3 vdd sg13_lv_pmos l=1.3e-07 w=7.8e-07
Xy_nmos _net2 _y vss vss sg13_lv_nmos l=1.3e-07 w=7.8e-07
Xy_pmos _net3 _y vdd vdd sg13_lv_pmos l=1.3e-07 w=7.8e-07
Xdff_m_nmos vss _dff_m _y vss sg13_lv_nmos l=1.3e-07 w=7.8e-07
Xdff_m_pmos vdd _dff_m _y vdd sg13_lv_pmos l=1.3e-07 w=7.8e-07
Xclk_buf_nmos1 _y _clk_buf _dff_s vss sg13_lv_nmos l=1.3e-07 w=7.8e-07
Xclk_n_pmos2 _y _clk_n _dff_s vdd sg13_lv_pmos l=1.3e-07 w=7.8e-07
Xclk_n_nmos2 _dff_s _clk_n _net4 vss sg13_lv_nmos l=1.3e-07 w=7.8e-07
Xclk_buf_pmos1 _dff_s _clk_buf _net5 vdd sg13_lv_pmos l=1.3e-07 w=7.8e-07
Xq_nmos _net4 q vss vss sg13_lv_nmos l=1.3e-07 w=7.8e-07
Xq_pmos _net5 q vdd vdd sg13_lv_pmos l=1.3e-07 w=7.8e-07
Xdff_s_nmos vss _dff_s q vss sg13_lv_nmos l=1.3e-07 w=8.3e-07
Xdff_s_pmos vdd _dff_s q vdd sg13_lv_pmos l=1.3e-07 w=8.2e-07
.ends dff_x1

.subckt inv_x0 vdd vss i nq
Xnmos vss i nq vss sg13_lv_nmos l=1.3e-07 w=7.8e-07
Xpmos vdd i nq vdd sg13_lv_pmos l=1.3e-07 w=7.8e-07
.ends inv_x0

.subckt nor2_x0 vdd vss nq i0 i1
Xi0_nmos vss i0 nq vss sg13_lv_nmos l=1.3e-07 w=7.8e-07
Xi0_pmos vdd i0 _net0 vdd sg13_lv_pmos l=1.3e-07 w=7.8e-07
Xi1_nmos nq i1 vss vss sg13_lv_nmos l=1.3e-07 w=7.8e-07
Xi1_pmos _net0 i1 nq vdd sg13_lv_pmos l=1.3e-07 w=7.8e-07
.ends nor2_x0

.subckt SP6T1ReadWrite_CM4MN26L580W1R_WD26L380W vss vdd d q bl bl_n clk we_n
Xsenseamp vdd vss bl_n bl q noconn nsnrlatch_x1
Xd_ff vdd vss d clk d_l dff_x1
Xd_inv vdd vss d_l d_n inv_x0
Xnora vdd vss bl_pd_g d_l we_n nor2_x0
Xnorb vdd vss bln_pd_g d_n we_n nor2_x0
Xbl_pd bl bl_pd_g vss vss sg13_lv_nmos l=1.3e-07 w=1.9e-06
Xbln_pd vss bln_pd_g bl_n vss sg13_lv_nmos l=1.3e-07 w=1.9e-06
.ends SP6T1ReadWrite_CM4MN26L580W1R_WD26L380W

.subckt buf_x2 vdd vss i q
Xstage0_nmos _i_n i vss vss sg13_lv_nmos l=1.3e-07 w=7.8e-07
Xstage0_pmos _i_n i vdd vdd sg13_lv_pmos l=1.3e-07 w=7.8e-07
Xnmos[0] vss _i_n q vss sg13_lv_nmos l=1.3e-07 w=1.07e-06
Xpmos[0] vdd _i_n q vdd sg13_lv_pmos l=1.3e-07 w=1.06e-06
Xnmos[1] q _i_n vss vss sg13_lv_nmos l=1.3e-07 w=1.07e-06
Xpmos[1] q _i_n vdd vdd sg13_lv_pmos l=1.3e-07 w=1.06e-06
.ends buf_x2

.subckt nand2_x0 vdd vss nq i0 i1
Xi0_nmos vss i0 _net0 vss sg13_lv_nmos l=1.3e-07 w=7.8e-07
Xi0_pmos vdd i0 nq vdd sg13_lv_pmos l=1.3e-07 w=7.8e-07
Xi1_nmos _net0 i1 nq vss sg13_lv_nmos l=1.3e-07 w=7.8e-07
Xi1_pmos nq i1 vdd vdd sg13_lv_pmos l=1.3e-07 w=7.8e-07
.ends nand2_x0

.subckt SP6T1ClockWE vss vdd clkup clkdown we we_en we_n
Xclkbuf vdd vss clkup clkdown buf_x2
Xweff vdd vss we clkdown we_l dff_x1
Xwenand vdd vss we_n we_l we_en nand2_x0
.ends SP6T1ClockWE

.subckt SP6T1ColPeriph8B_PC26L100W_CM4MN26L580W1R vss vdd nwell clk precharge_n we we_en q[0] d[0] bl[0] bl_n[0] bl[1] bl_n[1] bl[2] bl_n[2] bl[3] bl_n[3] q[1] d[1] bl[4] bl_n[4] bl[5] bl_n[5] bl[6] bl_n[6] bl[7] bl_n[7] q[2] d[2] bl[8] bl_n[8] bl[9] bl_n[9] bl[10] bl_n[10] bl[11] bl_n[11] q[3] d[3] bl[12] bl_n[12] bl[13] bl_n[13] bl[14] bl_n[14] bl[15] bl_n[15] q[4] d[4] bl[16] bl_n[16] bl[17] bl_n[17] bl[18] bl_n[18] bl[19] bl_n[19] q[5] d[5] bl[20] bl_n[20] bl[21] bl_n[21] bl[22] bl_n[22] bl[23] bl_n[23] q[6] d[6] bl[24] bl_n[24] bl[25] bl_n[25] bl[26] bl_n[26] bl[27] bl_n[27] q[7] d[7] bl[28] bl_n[28] bl[29] bl_n[29] bl[30] bl_n[30] bl[31] bl_n[31] mux[0] mux[1] mux[2] mux[3]
Xprecharge[0] vdd nwell bl[0] bl_n[0] precharge_n SP6T1Precharge_26L100W
Xprecharge[1] vdd nwell bl[1] bl_n[1] precharge_n SP6T1Precharge_26L100W
Xprecharge[2] vdd nwell bl[2] bl_n[2] precharge_n SP6T1Precharge_26L100W
Xprecharge[3] vdd nwell bl[3] bl_n[3] precharge_n SP6T1Precharge_26L100W
Xprecharge[4] vdd nwell bl[4] bl_n[4] precharge_n SP6T1Precharge_26L100W
Xprecharge[5] vdd nwell bl[5] bl_n[5] precharge_n SP6T1Precharge_26L100W
Xprecharge[6] vdd nwell bl[6] bl_n[6] precharge_n SP6T1Precharge_26L100W
Xprecharge[7] vdd nwell bl[7] bl_n[7] precharge_n SP6T1Precharge_26L100W
Xprecharge[8] vdd nwell bl[8] bl_n[8] precharge_n SP6T1Precharge_26L100W
Xprecharge[9] vdd nwell bl[9] bl_n[9] precharge_n SP6T1Precharge_26L100W
Xprecharge[10] vdd nwell bl[10] bl_n[10] precharge_n SP6T1Precharge_26L100W
Xprecharge[11] vdd nwell bl[11] bl_n[11] precharge_n SP6T1Precharge_26L100W
Xprecharge[12] vdd nwell bl[12] bl_n[12] precharge_n SP6T1Precharge_26L100W
Xprecharge[13] vdd nwell bl[13] bl_n[13] precharge_n SP6T1Precharge_26L100W
Xprecharge[14] vdd nwell bl[14] bl_n[14] precharge_n SP6T1Precharge_26L100W
Xprecharge[15] vdd nwell bl[15] bl_n[15] precharge_n SP6T1Precharge_26L100W
Xprecharge[16] vdd nwell bl[16] bl_n[16] precharge_n SP6T1Precharge_26L100W
Xprecharge[17] vdd nwell bl[17] bl_n[17] precharge_n SP6T1Precharge_26L100W
Xprecharge[18] vdd nwell bl[18] bl_n[18] precharge_n SP6T1Precharge_26L100W
Xprecharge[19] vdd nwell bl[19] bl_n[19] precharge_n SP6T1Precharge_26L100W
Xprecharge[20] vdd nwell bl[20] bl_n[20] precharge_n SP6T1Precharge_26L100W
Xprecharge[21] vdd nwell bl[21] bl_n[21] precharge_n SP6T1Precharge_26L100W
Xprecharge[22] vdd nwell bl[22] bl_n[22] precharge_n SP6T1Precharge_26L100W
Xprecharge[23] vdd nwell bl[23] bl_n[23] precharge_n SP6T1Precharge_26L100W
Xprecharge[24] vdd nwell bl[24] bl_n[24] precharge_n SP6T1Precharge_26L100W
Xprecharge[25] vdd nwell bl[25] bl_n[25] precharge_n SP6T1Precharge_26L100W
Xprecharge[26] vdd nwell bl[26] bl_n[26] precharge_n SP6T1Precharge_26L100W
Xprecharge[27] vdd nwell bl[27] bl_n[27] precharge_n SP6T1Precharge_26L100W
Xprecharge[28] vdd nwell bl[28] bl_n[28] precharge_n SP6T1Precharge_26L100W
Xprecharge[29] vdd nwell bl[29] bl_n[29] precharge_n SP6T1Precharge_26L100W
Xprecharge[30] vdd nwell bl[30] bl_n[30] precharge_n SP6T1Precharge_26L100W
Xprecharge[31] vdd nwell bl[31] bl_n[31] precharge_n SP6T1Precharge_26L100W
Xcolmux[0] bl[0] bl_n[0] mux[0] bl[1] bl_n[1] mux[1] bl[2] bl_n[2] mux[2] bl[3] bl_n[3] mux[3] vss muxbl[0] muxbl_n[0] SP6T1ColMux_4MN26L580W1R
Xcolmux[1] bl[4] bl_n[4] mux[0] bl[5] bl_n[5] mux[1] bl[6] bl_n[6] mux[2] bl[7] bl_n[7] mux[3] vss muxbl[1] muxbl_n[1] SP6T1ColMux_4MN26L580W1R
Xcolmux[2] bl[8] bl_n[8] mux[0] bl[9] bl_n[9] mux[1] bl[10] bl_n[10] mux[2] bl[11] bl_n[11] mux[3] vss muxbl[2] muxbl_n[2] SP6T1ColMux_4MN26L580W1R
Xcolmux[3] bl[12] bl_n[12] mux[0] bl[13] bl_n[13] mux[1] bl[14] bl_n[14] mux[2] bl[15] bl_n[15] mux[3] vss muxbl[3] muxbl_n[3] SP6T1ColMux_4MN26L580W1R
Xcolmux[4] bl[16] bl_n[16] mux[0] bl[17] bl_n[17] mux[1] bl[18] bl_n[18] mux[2] bl[19] bl_n[19] mux[3] vss muxbl[4] muxbl_n[4] SP6T1ColMux_4MN26L580W1R
Xcolmux[5] bl[20] bl_n[20] mux[0] bl[21] bl_n[21] mux[1] bl[22] bl_n[22] mux[2] bl[23] bl_n[23] mux[3] vss muxbl[5] muxbl_n[5] SP6T1ColMux_4MN26L580W1R
Xcolmux[6] bl[24] bl_n[24] mux[0] bl[25] bl_n[25] mux[1] bl[26] bl_n[26] mux[2] bl[27] bl_n[27] mux[3] vss muxbl[6] muxbl_n[6] SP6T1ColMux_4MN26L580W1R