* Extracted by KLayout with SG13G2 LVS runset on : 14/04/2026 10:10

.SUBCKT SP03 vss in_srout vdd_block vdd_periph out_srout out_latch clk
+ out_shift out_l2s out_srin in_shift in_latch in_srin
X$2 vss out_l2s out_shift out_srout vdd_periph out_srin clk out_latch in_shift
+ in_srin in_srout in_latch vdd_block SP6T3Block_512x32_4we_C2B_R3B4B_Test
.ENDS SP03

.SUBCKT SP6T3Block_512x32_4we_C2B_R3B4B_Test vss out_l2s out_shift out_srout
+ vdd_periph out_srin clk out_latch in_shift in_srin in_srout in_latch vdd_block
X$1 vss clk \$65 \$15 \$66 \$16 \$67 \$17 \$68 \$18 \$69 \$19 \$70 \$20 \$97
+ \$21 \$71 \$22 \$72 \$73 \$23 \$74 \$24 \$75 \$25 \$76 \$26 \$77 \$27 \$78
+ \$28 \$98 \$29 \$79 \$30 \$80 \$81 \$31 \$82 \$32 \$83 \$33 \$84 \$34 \$85
+ \$35 \$86 \$36 \$99 \$37 \$87 \$38 \$88 \$89 \$39 \$90 \$40 \$91 \$41 \$92
+ \$42 \$93 \$43 \$94 \$44 \$100 \$45 \$95 \$46 \$96 vdd_block \$63 \$64 \$61
+ \$62 \$59 \$60 \$58 \$56 \$57 SP6T3Block_512x32_4we_C2B_R3B4B
X$2 vss in_shift \$49 vdd_periph \$50 in_latch \$65 \$66 \$67 \$68 \$69 \$70
+ \$97 \$71 \$72 SP6T3TimingIn_9SL
X$3 vss out_shift out_l2s \$9 vdd_periph \$8 out_latch \$15 \$16 \$17 \$18 \$19
+ \$20 \$21 \$22 SP6T3TimingOut_8SL
X$6 vss in_shift \$50 vdd_periph \$51 in_latch \$73 \$74 \$75 \$76 \$77 \$78
+ \$98 \$79 \$80 SP6T3TimingIn_9SL
X$7 vss out_shift out_l2s \$10 vdd_periph \$9 out_latch \$23 \$24 \$25 \$26
+ \$27 \$28 \$29 \$30 SP6T3TimingOut_8SL
X$8 vss in_shift \$52 vdd_periph in_srout in_latch \$89 \$90 \$91 \$92 \$93
+ \$94 \$100 \$95 \$96 SP6T3TimingIn_9SL
X$9 vss out_shift out_l2s out_srout vdd_periph \$11 out_latch \$39 \$40 \$41
+ \$42 \$43 \$44 \$45 \$46 SP6T3TimingOut_8SL
X$10 vss in_shift \$51 vdd_periph \$52 in_latch \$81 \$82 \$83 \$84 \$85 \$86
+ \$99 \$87 \$88 SP6T3TimingIn_9SL
X$11 vss out_shift out_l2s \$11 vdd_periph \$10 out_latch \$31 \$32 \$33 \$34
+ \$35 \$36 \$37 \$38 SP6T3TimingOut_8SL
X$12 vss in_shift in_srin vdd_periph \$49 in_latch \$56 \$57 \$58 \$59 \$60
+ \$61 \$62 \$63 \$64 SP6T3TimingIn_9SF
X$19 vss vdd_periph out_shift out_l2s in_latch out_latch clk out_srin \$8
+ SP6T3TimingOut_2SL
.ENDS SP6T3Block_512x32_4we_C2B_R3B4B_Test

.SUBCKT SP6T3TimingOut_2SL vss vdd sr_shift l2s o[0] o[1] sr_latch sr_in sr_out
X$1 vss \$11 \$10 sr_shift vdd dff_x1
X$2 vss o[0] \$12 sr_latch vdd dff_x1
X$3 vdd vss l2s sr_in \$12 \$11 mux2_x1
X$4 vdd vss l2s \$10 \$15 \$14 mux2_x1
X$5 vss \$14 sr_out sr_shift vdd dff_x1
X$6 vss o[1] \$15 sr_latch vdd dff_x1
.ENDS SP6T3TimingOut_2SL

.SUBCKT SP6T3TimingOut_8SL vss sr_shift l2s sr_out vdd sr_in sr_latch o[0] o[1]
+ o[2] o[3] o[4] o[5] o[6] o[7]
X$1 vss \$9 \$10 sr_shift vdd dff_x1
X$2 vss o[0] \$25 sr_latch vdd dff_x1
X$3 vdd vss l2s sr_in \$25 \$9 mux2_x1
X$4 vdd vss l2s \$10 \$5 \$11 mux2_x1
X$5 vss \$11 \$12 sr_shift vdd dff_x1
X$6 vss o[1] \$5 sr_latch vdd dff_x1
X$7 vss \$13 \$14 sr_shift vdd dff_x1
X$8 vss o[2] \$26 sr_latch vdd dff_x1
X$9 vdd vss l2s \$12 \$26 \$13 mux2_x1
X$10 vdd vss l2s \$14 \$6 \$15 mux2_x1
X$11 vss \$15 \$16 sr_shift vdd dff_x1
X$12 vss o[3] \$6 sr_latch vdd dff_x1
X$13 vss \$17 \$18 sr_shift vdd dff_x1
X$14 vss o[4] \$28 sr_latch vdd dff_x1
X$15 vdd vss l2s \$16 \$28 \$17 mux2_x1
X$16 vdd vss l2s \$18 \$7 \$19 mux2_x1
X$17 vss \$19 \$20 sr_shift vdd dff_x1
X$18 vss o[5] \$7 sr_latch vdd dff_x1
X$19 vss \$21 \$22 sr_shift vdd dff_x1
X$20 vss o[6] \$29 sr_latch vdd dff_x1
X$21 vdd vss l2s \$20 \$29 \$21 mux2_x1
X$22 vdd vss l2s \$22 \$8 \$23 mux2_x1
X$23 vss \$23 sr_out sr_shift vdd dff_x1
X$24 vss o[7] \$8 sr_latch vdd dff_x1
.ENDS SP6T3TimingOut_8SL

.SUBCKT SP6T3TimingIn_9SL vss sr_shift sr_in vdd sr_out sr_latch i[0] i[1] i[2]
+ i[3] i[4] i[5] i[6] i[7] i[8]
X$1 vss sr_in \$5 sr_shift vdd dff_x1
X$2 vss \$5 i[0] sr_latch vdd dff_x1
X$3 vss \$5 \$6 sr_shift vdd dff_x1
X$4 vss \$6 i[1] sr_latch vdd dff_x1
X$5 vss \$6 \$7 sr_shift vdd dff_x1
X$6 vss \$7 i[2] sr_latch vdd dff_x1
X$7 vss \$7 \$8 sr_shift vdd dff_x1
X$8 vss \$8 i[3] sr_latch vdd dff_x1
X$9 vss \$8 \$9 sr_shift vdd dff_x1
X$10 vss \$9 i[4] sr_latch vdd dff_x1
X$11 vss \$9 \$10 sr_shift vdd dff_x1
X$12 vss \$10 i[5] sr_latch vdd dff_x1
X$13 vss \$10 \$11 sr_shift vdd dff_x1
X$14 vss \$11 i[6] sr_latch vdd dff_x1
X$15 vss \$11 \$12 sr_shift vdd dff_x1
X$16 vss \$12 i[7] sr_latch vdd dff_x1
X$17 vss \$12 sr_out sr_shift vdd dff_x1
X$18 vss sr_out i[8] sr_latch vdd dff_x1
.ENDS SP6T3TimingIn_9SL

.SUBCKT SP6T3TimingIn_9SF vss sr_shift sr_in vdd sr_out sr_latch i[8] i[7] i[6]
+ i[5] i[4] i[3] i[2] i[1] i[0]
X$1 vss sr_in \$5 sr_shift vdd dff_x1
X$2 vss \$5 i[8] sr_latch vdd dff_x1
X$3 vss \$5 \$6 sr_shift vdd dff_x1
X$4 vss \$6 i[7] sr_latch vdd dff_x1
X$5 vss \$6 \$7 sr_shift vdd dff_x1
X$6 vss \$7 i[6] sr_latch vdd dff_x1
X$7 vss \$7 \$8 sr_shift vdd dff_x1
X$8 vss \$8 i[5] sr_latch vdd dff_x1
X$9 vss \$8 \$9 sr_shift vdd dff_x1
X$10 vss \$9 i[4] sr_latch vdd dff_x1
X$11 vss \$9 \$10 sr_shift vdd dff_x1
X$12 vss \$10 i[3] sr_latch vdd dff_x1
X$13 vss \$10 \$11 sr_shift vdd dff_x1
X$14 vss \$11 i[2] sr_latch vdd dff_x1
X$15 vss \$11 \$12 sr_shift vdd dff_x1
X$16 vss \$12 i[1] sr_latch vdd dff_x1
X$17 vss \$12 sr_out sr_shift vdd dff_x1
X$18 vss sr_out i[0] sr_latch vdd dff_x1
.ENDS SP6T3TimingIn_9SF

.SUBCKT SP6T3Block_512x32_4we_C2B_R3B4B vss clk d[0] q[0] d[1] q[1] d[2] q[2]
+ d[3] q[3] d[4] q[4] d[5] q[5] d[6] q[6] d[7] q[7] we[0] d[8] q[8] d[9] q[9]
+ d[10] q[10] d[11] q[11] d[12] q[12] d[13] q[13] d[14] q[14] d[15] q[15] we[1]
+ d[16] q[16] d[17] q[17] d[18] q[18] d[19] q[19] d[20] q[20] d[21] q[21] d[22]
+ q[22] d[23] q[23] we[2] d[24] q[24] d[25] q[25] d[26] q[26] d[27] q[27] d[28]
+ q[28] d[29] q[29] d[30] q[30] d[31] q[31] we[3] vdd a[1] a[0] a[3] a[2] a[5]
+ a[4] a[6] a[8] a[7]
X$1 vss a[0] \$80 vdd \$3 \$83 a[1] \$81 \$82 a[2] \$92 \$107 \$91 \$106 \$95
+ \$108 \$94 \$109 \$96 \$110 a[3] \$93 \$97 \$111 \$130 \$142 \$144 \$132
+ \$143 a[4] \$131 \$129 \$145 \$128 \$146 \$149 \$127 \$148 a[5] \$133 \$147
+ \$166 \$187 \$168 \$185 \$169 \$188 a[6] \$167 \$182 \$171 \$183 \$172 \$186
+ \$170 \$184 \$212 \$221 a[7] \$210 \$228 \$206 \$227 \$209 \$225 \$211 \$222
+ a[8] \$207 \$224 \$205 \$223 \$208 \$226 \$246 \$261 \$245 \$264 \$247 \$265
+ \$248 \$5 \$251 \$262 \$263 \$249 \$267 \$250 \$266 \$286 \$306 \$285 \$304
+ \$284 \$303 \$287 \$301 \$283 \$299 \$289 \$305 \$288 \$302 \$282 \$300 \$329
+ \$346 \$326 \$345 \$323 \$343 \$327 \$342 \$330 \$344 \$325 \$340 \$328 \$347
+ \$324 \$341 \$369 \$381 \$367 \$387 \$368 \$385 \$365 \$386 \$366 \$388 \$364
+ \$382 \$371 \$383 \$370 \$384 \$405 \$416 \$408 \$417 \$406 \$415 \$407 \$414
+ SP6T3RowPeriph_PD3B4B_LD2B2R
X$2 vss vdd \$92 \$107 \$116 \$117 \$91 \$123 \$106 \$95 \$124 \$122 \$108 \$94
+ \$121 \$119 \$109 \$118 \$96 \$110 \$113 \$114 \$93 \$115 \$111 \$97 \$120
+ \$112 \$142 \$130 \$158 \$153 \$144 \$160 \$132 \$161 \$143 \$131 \$154 \$151
+ \$145 \$150 \$129 \$146 \$164 \$152 \$128 \$163 \$149 \$127 \$162 \$155 \$148
+ \$133 \$156 \$157 \$147 \$159 \$166 \$187 \$196 \$199 \$168 \$197 \$185 \$189
+ \$188 \$169 \$192 \$200 \$167 \$202 \$182 \$171 \$194 \$191 \$183 \$172 \$201
+ \$195 \$186 \$198 \$170 \$184 \$193 \$190 \$212 \$232 \$221 \$210 \$234 \$231
+ \$228 \$206 \$235 \$238 \$227 \$233 \$209 \$243 \$225 \$211 \$236 \$237 \$222
+ \$239 \$207 \$224 \$230 \$244 \$205 \$229 \$223 \$208 \$242 \$241 \$226 \$246
+ \$240 \$273 \$261 \$275 \$245 \$264 \$271 \$270 \$247 \$272 \$265 \$274 \$248
+ \$277 \$262 \$251 \$276 \$281 \$263 \$280 \$249 \$267 \$278 \$279 \$250 \$269
+ \$266 \$286 \$268 \$308 \$306 \$285 \$307 \$313 \$304 \$317 \$284 \$303 \$321
+ \$320 \$287 \$319 \$301 \$318 \$299 \$283 \$316 \$315 \$289 \$314 \$305 \$288
+ \$312 \$311 \$302 \$282 \$310 \$309 \$300 \$322 \$329 \$346 \$349 \$348 \$326
+ \$358 \$345 \$323 \$353 \$357 \$343 \$327 \$351 \$359 \$342 \$350 \$330 \$352
+ \$344 \$325 \$354 \$361 \$340 \$362 \$328 \$347 \$360 \$363 \$324 \$355 \$341
+ \$369 \$356 \$392 \$381 \$367 \$390 \$402 \$387 \$398 \$368 \$385 \$394 \$404
+ \$365 \$396 \$386 \$403 \$388 \$366 \$401 \$395 \$364 \$393 \$382 \$371 \$397
+ \$400 \$383 \$370 \$399 \$389 \$384 \$391 \$405 \$416 \$423 \$422 \$408 \$425
+ \$417 \$406 \$419 \$424 \$415 \$407 \$420 \$421 \$414 \$418
+ SP6T3WLDriverCol_128RN26L400WP26L800W
X$3 vss vdd clk \$3 \$5 \$6 \$76 \$75 SP6T3ClockGen_4S11341D1R
X$4 vss d[0] q[0] d[1] q[1] d[2] q[2] d[3] q[3] d[4] q[4] d[5] q[5] d[6] q[6]
+ d[7] q[7] we[0] d[8] q[8] d[9] q[9] d[10] q[10] d[11] q[11] d[12] q[12] d[13]
+ q[13] d[14] q[14] d[15] q[15] we[1] d[16] q[16] d[17] q[17] d[18] q[18] d[19]
+ q[19] \$76 \$75 d[20] q[20] d[21] q[21] d[22] q[22] d[23] q[23] we[2] d[24]
+ q[24] d[25] q[25] d[26] q[26] d[27] q[27] d[28] q[28] d[29] q[29] d[30] q[30]
+ d[31] q[31] we[3] vdd \$82 \$6 \$81 \$83 \$80 \$159 \$201 \$191 \$194 \$202
+ \$200 \$192 \$189 \$197 \$196 \$195 \$157 \$156 \$155 \$162 \$163 \$164 \$152
+ \$150 \$151 \$241 \$242 \$229 \$230 \$244 \$239 \$237 \$236 \$243 \$199 \$233
+ \$238 \$235 \$231 \$234 \$232 \$190 \$193 \$198 \$121 \$153 \$158 \$112 \$120
+ \$115 \$113 \$118 \$119 \$114 \$122 \$124 \$123 \$117 \$116 \$160 \$154 \$161
+ \$358 \$357 \$353 \$351 \$359 \$350 \$360 \$348 \$349 \$322 \$309 \$310 \$311
+ \$312 \$314 \$316 \$318 \$319 \$402 \$393 \$395 \$401 \$403 \$396 \$404 \$394
+ \$398 \$390 \$392 \$356 \$355 \$315 \$363 \$362 \$361 \$354 \$352 \$270 \$274
+ \$268 \$308 \$272 \$269 \$307 \$271 \$278 \$313 \$277 \$279 \$275 \$317 \$280
+ \$273 \$276 \$321 \$281 \$240 \$320 \$391 \$397 \$400 \$399 \$418 \$389 \$424
+ \$421 \$423 \$422 \$420 \$425 \$419
+ SP6T3ColumnBlock_COL128R_CP8B_CM4MN26L580W1R_PC26L100W_4WE
.ENDS SP6T3Block_512x32_4we_C2B_R3B4B

.SUBCKT mux2_x1 vdd vss cmd i0 i1 q
M$1 \$1 cmd vss vss sg13_lv_nmos L=0.13u W=0.78u AS=0.2652p AD=0.1482p PS=2.24u
+ PD=1.16u
M$2 vss i0 \$9 vss sg13_lv_nmos L=0.13u W=0.78u AS=0.1482p AD=0.1482p PS=1.16u
+ PD=1.16u
M$3 \$9 \$1 \$6 vss sg13_lv_nmos L=0.13u W=0.78u AS=0.1482p AD=0.195p PS=1.16u
+ PD=1.28u
M$4 \$6 cmd \$10 vss sg13_lv_nmos L=0.13u W=0.78u AS=0.195p AD=0.1482p PS=1.28u
+ PD=1.16u
M$5 \$10 i1 vss vss sg13_lv_nmos L=0.13u W=0.78u AS=0.1482p AD=0.2092p PS=1.16u
+ PD=1.48u
M$6 vss \$6 q vss sg13_lv_nmos L=0.13u W=1.07u AS=0.2092p AD=0.3638p PS=1.48u
+ PD=2.82u
M$7 \$1 cmd vdd vdd sg13_lv_pmos L=0.13u W=0.78u AS=0.2652p AD=0.1482p PS=2.24u
+ PD=1.16u
M$8 vdd i0 \$11 vdd sg13_lv_pmos L=0.13u W=0.78u AS=0.1482p AD=0.1482p PS=1.16u
+ PD=1.16u
M$9 \$11 cmd \$6 vdd sg13_lv_pmos L=0.13u W=0.78u AS=0.1482p AD=0.195p PS=1.16u
+ PD=1.28u
M$10 \$6 \$1 \$12 vdd sg13_lv_pmos L=0.13u W=0.78u AS=0.195p AD=0.1482p
+ PS=1.28u PD=1.16u
M$11 vdd i1 \$12 vdd sg13_lv_pmos L=0.13u W=0.78u AS=0.2075p AD=0.1482p
+ PS=1.47u PD=1.16u
M$12 vdd \$6 q vdd sg13_lv_pmos L=0.13u W=1.06u AS=0.2075p AD=0.3604p PS=1.47u
+ PD=2.8u
.ENDS mux2_x1

.SUBCKT SP6T3ClockGen_4S11341D1R vss vdd clk decodeclk wl_en precharge_n
+ columnclk we_en
X$1 vdd vss clk decodeclk buf_x1
X$2 vdd vss \$7 wl_en buf_x4
X$3 vss vdd precharge_n \$10 inv_x3
X$4 vdd vss clk columnclk buf_x1
X$5 vss vdd \$7 \$10 clk SP6T3NonOvlClock_4S11341D1R
X$6 vdd vss \$7 we_en buf_x1
.ENDS SP6T3ClockGen_4S11341D1R

.SUBCKT SP6T3ColumnBlock_COL128R_CP8B_CM4MN26L580W1R_PC26L100W_4WE vss d[0]
+ q[0] d[1] q[1] d[2] q[2] d[3] q[3] d[4] q[4] d[5] q[5] d[6] q[6] d[7] q[7]
+ we[0] d[8] q[8] d[9] q[9] d[10] q[10] d[11] q[11] d[12] q[12] d[13] q[13]
+ d[14] q[14] d[15] q[15] we[1] d[16] q[16] d[17] q[17] d[18] q[18] d[19] q[19]
+ clk we_en d[20] q[20] d[21] q[21] d[22] q[22] d[23] q[23] we[2] d[24] q[24]
+ d[25] q[25] d[26] q[26] d[27] q[27] d[28] q[28] d[29] q[29] d[30] q[30] d[31]
+ q[31] we[3] vdd mux[3] precharge_n mux[2] mux[1] mux[0] wl[27] wl[37] wl[36]
+ wl[35] wl[34] wl[33] wl[32] wl[31] wl[30] wl[29] wl[38] wl[26] wl[25] wl[24]
+ wl[23] wl[22] wl[21] wl[20] wl[19] wl[18] wl[56] wl[55] wl[54] wl[53] wl[52]
+ wl[51] wl[50] wl[49] wl[48] wl[28] wl[47] wl[46] wl[45] wl[44] wl[43] wl[42]
+ wl[41] wl[40] wl[39] wl[5] wl[14] wl[13] wl[12] wl[11] wl[10] wl[8] wl[7]
+ wl[6] wl[9] wl[4] wl[3] wl[2] wl[1] wl[0] wl[15] wl[17] wl[16] wl[90] wl[92]
+ wl[91] wl[93] wl[94] wl[95] wl[101] wl[89] wl[88] wl[87] wl[86] wl[85] wl[84]
+ wl[83] wl[82] wl[80] wl[79] wl[78] wl[106] wl[114] wl[113] wl[112] wl[111]
+ wl[110] wl[109] wl[108] wl[107] wl[105] wl[104] wl[103] wl[102] wl[81]
+ wl[100] wl[99] wl[98] wl[97] wl[96] wl[60] wl[63] wl[71] wl[72] wl[62] wl[70]
+ wl[73] wl[61] wl[69] wl[74] wl[64] wl[68] wl[59] wl[75] wl[67] wl[58] wl[65]
+ wl[76] wl[66] wl[57] wl[77] wl[119] wl[115] wl[116] wl[117] wl[127] wl[118]
+ wl[124] wl[126] wl[120] wl[121] wl[125] wl[122] wl[123]
X$1 vss d[8] q[8] d[9] q[9] d[10] q[10] d[11] q[11] d[12] q[12] d[13] q[13]
+ d[14] q[14] d[15] q[15] we[1] clk we_en mux[3] mux[2] mux[1] mux[0] vdd wl[9]
+ wl[11] wl[10] wl[4] wl[8] precharge_n wl[0] wl[1] wl[2] wl[7] wl[6] wl[5]
+ wl[3] wl[22] wl[20] wl[19] wl[21] wl[12] wl[23] wl[18] wl[24] wl[25] wl[17]
+ wl[26] wl[27] wl[15] wl[14] wl[13] wl[16] wl[40] wl[39] wl[38] wl[37] wl[36]
+ wl[35] wl[28] wl[34] wl[33] wl[32] wl[42] wl[43] wl[29] wl[30] wl[31] wl[41]
+ wl[59] wl[54] wl[49] wl[58] wl[50] wl[57] wl[51] wl[56] wl[52] wl[55] wl[53]
+ wl[47] wl[46] wl[45] wl[44] wl[48] wl[67] wl[68] wl[66] wl[69] wl[70] wl[71]
+ wl[65] wl[72] wl[75] wl[73] wl[64] wl[74] wl[60] wl[61] wl[63] wl[62] wl[91]
+ wl[86] wl[81] wl[90] wl[89] wl[82] wl[88] wl[83] wl[84] wl[87] wl[85] wl[79]
+ wl[78] wl[77] wl[76] wl[80] wl[99] wl[100] wl[98] wl[101] wl[102] wl[103]
+ wl[97] wl[104] wl[107] wl[105] wl[96] wl[106] wl[92] wl[93] wl[95] wl[94]
+ wl[123] wl[118] wl[113] wl[122] wl[121] wl[114] wl[120] wl[115] wl[116]
+ wl[119] wl[117] wl[111] wl[110] wl[109] wl[108] wl[112] wl[127] wl[126]
+ wl[125] wl[124] SP6T3Column_128R_CP8B_CM4MN26L580W1R_PC26L100W
X$2 vss d[0] q[0] d[1] q[1] d[2] q[2] d[3] q[3] d[4] q[4] d[5] q[5] d[6] q[6]
+ d[7] q[7] we[0] clk we_en mux[3] mux[2] mux[1] mux[0] vdd wl[9] wl[11] wl[10]
+ wl[4] wl[8] precharge_n wl[0] wl[1] wl[2] wl[7] wl[6] wl[5] wl[3] wl[22]
+ wl[20] wl[19] wl[21] wl[12] wl[23] wl[18] wl[24] wl[25] wl[17] wl[26] wl[27]
+ wl[15] wl[14] wl[13] wl[16] wl[40] wl[39] wl[38] wl[37] wl[36] wl[35] wl[28]
+ wl[34] wl[33] wl[32] wl[42] wl[43] wl[29] wl[30] wl[31] wl[41] wl[59] wl[54]
+ wl[49] wl[58] wl[50] wl[57] wl[51] wl[56] wl[52] wl[55] wl[53] wl[47] wl[46]
+ wl[45] wl[44] wl[48] wl[67] wl[68] wl[66] wl[69] wl[70] wl[71] wl[65] wl[72]
+ wl[75] wl[73] wl[64] wl[74] wl[60] wl[61] wl[63] wl[62] wl[91] wl[86] wl[81]
+ wl[90] wl[89] wl[82] wl[88] wl[83] wl[84] wl[87] wl[85] wl[79] wl[78] wl[77]
+ wl[76] wl[80] wl[99] wl[100] wl[98] wl[101] wl[102] wl[103] wl[97] wl[104]
+ wl[107] wl[105] wl[96] wl[106] wl[92] wl[93] wl[95] wl[94] wl[123] wl[118]
+ wl[113] wl[122] wl[121] wl[114] wl[120] wl[115] wl[116] wl[119] wl[117]
+ wl[111] wl[110] wl[109] wl[108] wl[112] wl[127] wl[126] wl[125] wl[124]
+ SP6T3Column_128R_CP8B_CM4MN26L580W1R_PC26L100W
X$3 vss d[16] q[16] d[17] q[17] d[18] q[18] d[19] q[19] d[20] q[20] d[21] q[21]
+ d[22] q[22] d[23] q[23] we[2] clk we_en mux[3] mux[2] mux[1] mux[0] vdd wl[9]
+ wl[11] wl[10] wl[4] wl[8] precharge_n wl[0] wl[1] wl[2] wl[7] wl[6] wl[5]
+ wl[3] wl[22] wl[20] wl[19] wl[21] wl[12] wl[23] wl[18] wl[24] wl[25] wl[17]
+ wl[26] wl[27] wl[15] wl[14] wl[13] wl[16] wl[40] wl[39] wl[38] wl[37] wl[36]
+ wl[35] wl[28] wl[34] wl[33] wl[32] wl[42] wl[43] wl[29] wl[30] wl[31] wl[41]
+ wl[59] wl[54] wl[49] wl[58] wl[50] wl[57] wl[51] wl[56] wl[52] wl[55] wl[53]
+ wl[47] wl[46] wl[45] wl[44] wl[48] wl[67] wl[68] wl[66] wl[69] wl[70] wl[71]
+ wl[65] wl[72] wl[75] wl[73] wl[64] wl[74] wl[60] wl[61] wl[63] wl[62] wl[91]
+ wl[86] wl[81] wl[90] wl[89] wl[82] wl[88] wl[83] wl[84] wl[87] wl[85] wl[79]
+ wl[78] wl[77] wl[76] wl[80] wl[99] wl[100] wl[98] wl[101] wl[102] wl[103]
+ wl[97] wl[104] wl[107] wl[105] wl[96] wl[106] wl[92] wl[93] wl[95] wl[94]
+ wl[123] wl[118] wl[113] wl[122] wl[121] wl[114] wl[120] wl[115] wl[116]
+ wl[119] wl[117] wl[111] wl[110] wl[109] wl[108] wl[112] wl[127] wl[126]
+ wl[125] wl[124] SP6T3Column_128R_CP8B_CM4MN26L580W1R_PC26L100W
X$4 vss d[24] q[24] d[25] q[25] d[26] q[26] d[27] q[27] d[28] q[28] d[29] q[29]
+ d[30] q[30] d[31] q[31] we[3] clk we_en mux[3] mux[2] mux[1] mux[0] vdd wl[9]
+ wl[11] wl[10] wl[4] wl[8] precharge_n wl[0] wl[1] wl[2] wl[7] wl[6] wl[5]
+ wl[3] wl[22] wl[20] wl[19] wl[21] wl[12] wl[23] wl[18] wl[24] wl[25] wl[17]
+ wl[26] wl[27] wl[15] wl[14] wl[13] wl[16] wl[40] wl[39] wl[38] wl[37] wl[36]
+ wl[35] wl[28] wl[34] wl[33] wl[32] wl[42] wl[43] wl[29] wl[30] wl[31] wl[41]
+ wl[59] wl[54] wl[49] wl[58] wl[50] wl[57] wl[51] wl[56] wl[52] wl[55] wl[53]
+ wl[47] wl[46] wl[45] wl[44] wl[48] wl[67] wl[68] wl[66] wl[69] wl[70] wl[71]
+ wl[65] wl[72] wl[75] wl[73] wl[64] wl[74] wl[60] wl[61] wl[63] wl[62] wl[91]
+ wl[86] wl[81] wl[90] wl[89] wl[82] wl[88] wl[83] wl[84] wl[87] wl[85] wl[79]
+ wl[78] wl[77] wl[76] wl[80] wl[99] wl[100] wl[98] wl[101] wl[102] wl[103]
+ wl[97] wl[104] wl[107] wl[105] wl[96] wl[106] wl[92] wl[93] wl[95] wl[94]
+ wl[123] wl[118] wl[113] wl[122] wl[121] wl[114] wl[120] wl[115] wl[116]
+ wl[119] wl[117] wl[111] wl[110] wl[109] wl[108] wl[112] wl[127] wl[126]
+ wl[125] wl[124] SP6T3Column_128R_CP8B_CM4MN26L580W1R_PC26L100W
.ENDS SP6T3ColumnBlock_COL128R_CP8B_CM4MN26L580W1R_PC26L100W_4WE

.SUBCKT SP6T3WLDriverCol_128RN26L400WP26L800W vss vdd wl_n[0] wl_n[1] wl[0]
+ wl[1] wl_n[2] wl[2] wl_n[3] wl_n[4] wl[3] wl[4] wl_n[5] wl_n[6] wl[5] wl[6]
+ wl_n[7] wl[7] wl_n[8] wl_n[9] wl[8] wl[9] wl_n[10] wl[10] wl_n[11] wl_n[12]
+ wl[11] wl[12] wl_n[13] wl_n[14] wl[13] wl[14] wl_n[15] wl[15] wl_n[16] wl[16]
+ wl_n[17] wl_n[18] wl[17] wl[18] wl_n[19] wl[19] wl_n[20] wl_n[21] wl[21]
+ wl[20] wl_n[22] wl[22] wl_n[23] wl_n[24] wl[23] wl[24] wl_n[25] wl_n[26]
+ wl[25] wl[26] wl_n[27] wl[27] wl_n[28] wl_n[29] wl[29] wl[28] wl_n[30] wl[30]
+ wl_n[31] wl[31] wl_n[33] wl_n[32] wl[32] wl[33] wl_n[34] wl[34] wl_n[35]
+ wl_n[36] wl[35] wl[36] wl_n[37] wl_n[38] wl[37] wl[38] wl_n[39] wl[39]
+ wl_n[40] wl_n[41] wl[40] wl[41] wl_n[42] wl[42] wl_n[43] wl_n[44] wl[43]
+ wl[44] wl_n[45] wl_n[46] wl[45] wl[46] wl_n[47] wl[47] wl_n[48] wl[48]
+ wl_n[49] wl_n[50] wl[49] wl[50] wl_n[51] wl[51] wl_n[52] wl_n[53] wl[53]
+ wl[52] wl_n[54] wl[54] wl_n[55] wl_n[56] wl[55] wl[56] wl_n[57] wl_n[58]
+ wl[57] wl[58] wl_n[59] wl[59] wl_n[60] wl_n[61] wl[61] wl[60] wl_n[62] wl[62]
+ wl_n[63] wl[63] wl_n[64] wl[64] wl_n[65] wl_n[66] wl[65] wl[66] wl_n[67]
+ wl[67] wl_n[68] wl_n[69] wl[69] wl[68] wl_n[70] wl[70] wl_n[71] wl_n[72]
+ wl[71] wl[72] wl_n[73] wl_n[74] wl[73] wl[74] wl_n[75] wl[75] wl_n[76]
+ wl_n[77] wl[76] wl[77] wl_n[78] wl[78] wl_n[79] wl[79] wl_n[81] wl_n[80]
+ wl[80] wl[81] wl_n[82] wl[82] wl_n[83] wl_n[84] wl[83] wl[84] wl_n[85]
+ wl_n[86] wl[85] wl[86] wl_n[87] wl[87] wl_n[88] wl_n[89] wl[88] wl[89]
+ wl_n[90] wl[90] wl_n[91] wl_n[92] wl[91] wl[92] wl_n[93] wl_n[94] wl[93]
+ wl[94] wl_n[95] wl[95] wl_n[96] wl[96] wl_n[97] wl_n[98] wl[97] wl[98]
+ wl_n[99] wl[99] wl_n[100] wl_n[101] wl[101] wl[100] wl_n[102] wl[102]
+ wl_n[103] wl_n[104] wl[103] wl[104] wl_n[105] wl_n[106] wl[105] wl[106]
+ wl_n[107] wl[107] wl_n[108] wl_n[109] wl[108] wl[109] wl_n[110] wl[110]
+ wl_n[111] wl[111] wl_n[113] wl_n[112] wl[112] wl[113] wl_n[114] wl[114]
+ wl_n[115] wl_n[116] wl[115] wl[116] wl_n[117] wl_n[118] wl[117] wl[118]
+ wl_n[119] wl[119] wl_n[120] wl_n[121] wl[120] wl[121] wl_n[122] wl[122]
+ wl_n[123] wl_n[124] wl[123] wl[124] wl_n[125] wl_n[126] wl[125] wl[126]
+ wl_n[127] wl[127]
X$1 vss vdd vss wl_n[0] wl[0] vdd SP6T3WLDriver_N26L400WP26L800W
X$3 vss vdd vss wl_n[1] wl[1] vdd SP6T3WLDriver_N26L400WP26L800W
X$4 vss vdd vss wl_n[2] wl[2] vdd SP6T3WLDriver_N26L400WP26L800W
X$5 vss vdd vss wl_n[3] wl[3] vdd SP6T3WLDriver_N26L400WP26L800W
X$6 vss vdd vss wl_n[4] wl[4] vdd SP6T3WLDriver_N26L400WP26L800W
X$7 vss vdd vss wl_n[5] wl[5] vdd SP6T3WLDriver_N26L400WP26L800W
X$8 vss vdd vss wl_n[6] wl[6] vdd SP6T3WLDriver_N26L400WP26L800W
X$9 vss vdd vss wl_n[7] wl[7] vdd SP6T3WLDriver_N26L400WP26L800W
X$10 vss vdd vss wl_n[8] wl[8] vdd SP6T3WLDriver_N26L400WP26L800W
X$11 vss vdd vss wl_n[9] wl[9] vdd SP6T3WLDriver_N26L400WP26L800W
X$12 vss vdd vss wl_n[10] wl[10] vdd SP6T3WLDriver_N26L400WP26L800W
X$13 vss vdd vss wl_n[11] wl[11] vdd SP6T3WLDriver_N26L400WP26L800W
X$14 vss vdd vss wl_n[12] wl[12] vdd SP6T3WLDriver_N26L400WP26L800W
X$15 vss vdd vss wl_n[13] wl[13] vdd SP6T3WLDriver_N26L400WP26L800W
X$16 vss vdd vss wl_n[14] wl[14] vdd SP6T3WLDriver_N26L400WP26L800W
X$17 vss vdd vss wl_n[15] wl[15] vdd SP6T3WLDriver_N26L400WP26L800W
X$19 vss vdd vss wl_n[16] wl[16] vdd SP6T3WLDriver_N26L400WP26L800W
X$20 vss vdd vss wl_n[17] wl[17] vdd SP6T3WLDriver_N26L400WP26L800W
X$21 vss vdd vss wl_n[18] wl[18] vdd SP6T3WLDriver_N26L400WP26L800W
X$22 vss vdd vss wl_n[19] wl[19] vdd SP6T3WLDriver_N26L400WP26L800W
X$23 vss vdd vss wl_n[20] wl[20] vdd SP6T3WLDriver_N26L400WP26L800W
X$24 vss vdd vss wl_n[21] wl[21] vdd SP6T3WLDriver_N26L400WP26L800W
X$25 vss vdd vss wl_n[22] wl[22] vdd SP6T3WLDriver_N26L400WP26L800W
X$26 vss vdd vss wl_n[23] wl[23] vdd SP6T3WLDriver_N26L400WP26L800W
X$27 vss vdd vss wl_n[24] wl[24] vdd SP6T3WLDriver_N26L400WP26L800W
X$28 vss vdd vss wl_n[25] wl[25] vdd SP6T3WLDriver_N26L400WP26L800W
X$29 vss vdd vss wl_n[26] wl[26] vdd SP6T3WLDriver_N26L400WP26L800W
X$30 vss vdd vss wl_n[27] wl[27] vdd SP6T3WLDriver_N26L400WP26L800W
X$31 vss vdd vss wl_n[28] wl[28] vdd SP6T3WLDriver_N26L400WP26L800W
X$32 vss vdd vss wl_n[29] wl[29] vdd SP6T3WLDriver_N26L400WP26L800W
X$33 vss vdd vss wl_n[30] wl[30] vdd SP6T3WLDriver_N26L400WP26L800W
X$34 vss vdd vss wl_n[31] wl[31] vdd SP6T3WLDriver_N26L400WP26L800W
X$36 vss vdd vss wl_n[32] wl[32] vdd SP6T3WLDriver_N26L400WP26L800W
X$37 vss vdd vss wl_n[33] wl[33] vdd SP6T3WLDriver_N26L400WP26L800W
X$38 vss vdd vss wl_n[34] wl[34] vdd SP6T3WLDriver_N26L400WP26L800W
X$39 vss vdd vss wl_n[35] wl[35] vdd SP6T3WLDriver_N26L400WP26L800W
X$40 vss vdd vss wl_n[36] wl[36] vdd SP6T3WLDriver_N26L400WP26L800W
X$41 vss vdd vss wl_n[37] wl[37] vdd SP6T3WLDriver_N26L400WP26L800W
X$42 vss vdd vss wl_n[38] wl[38] vdd SP6T3WLDriver_N26L400WP26L800W
X$43 vss vdd vss wl_n[39] wl[39] vdd SP6T3WLDriver_N26L400WP26L800W
X$44 vss vdd vss wl_n[40] wl[40] vdd SP6T3WLDriver_N26L400WP26L800W
X$45 vss vdd vss wl_n[41] wl[41] vdd SP6T3WLDriver_N26L400WP26L800W
X$46 vss vdd vss wl_n[42] wl[42] vdd SP6T3WLDriver_N26L400WP26L800W
X$47 vss vdd vss wl_n[43] wl[43] vdd SP6T3WLDriver_N26L400WP26L800W
X$48 vss vdd vss wl_n[44] wl[44] vdd SP6T3WLDriver_N26L400WP26L800W
X$49 vss vdd vss wl_n[45] wl[45] vdd SP6T3WLDriver_N26L400WP26L800W
X$50 vss vdd vss wl_n[46] wl[46] vdd SP6T3WLDriver_N26L400WP26L800W
X$51 vss vdd vss wl_n[47] wl[47] vdd SP6T3WLDriver_N26L400WP26L800W
X$53 vss vdd vss wl_n[48] wl[48] vdd SP6T3WLDriver_N26L400WP26L800W
X$54 vss vdd vss wl_n[49] wl[49] vdd SP6T3WLDriver_N26L400WP26L800W
X$55 vss vdd vss wl_n[50] wl[50] vdd SP6T3WLDriver_N26L400WP26L800W
X$56 vss vdd vss wl_n[51] wl[51] vdd SP6T3WLDriver_N26L400WP26L800W
X$57 vss vdd vss wl_n[52] wl[52] vdd SP6T3WLDriver_N26L400WP26L800W
X$58 vss vdd vss wl_n[53] wl[53] vdd SP6T3WLDriver_N26L400WP26L800W
X$59 vss vdd vss wl_n[54] wl[54] vdd SP6T3WLDriver_N26L400WP26L800W
X$60 vss vdd vss wl_n[55] wl[55] vdd SP6T3WLDriver_N26L400WP26L800W
X$61 vss vdd vss wl_n[56] wl[56] vdd SP6T3WLDriver_N26L400WP26L800W
X$62 vss vdd vss wl_n[57] wl[57] vdd SP6T3WLDriver_N26L400WP26L800W
X$63 vss vdd vss wl_n[58] wl[58] vdd SP6T3WLDriver_N26L400WP26L800W
X$64 vss vdd vss wl_n[59] wl[59] vdd SP6T3WLDriver_N26L400WP26L800W
X$65 vss vdd vss wl_n[60] wl[60] vdd SP6T3WLDriver_N26L400WP26L800W
X$66 vss vdd vss wl_n[61] wl[61] vdd SP6T3WLDriver_N26L400WP26L800W
X$67 vss vdd vss wl_n[62] wl[62] vdd SP6T3WLDriver_N26L400WP26L800W
X$68 vss vdd vss wl_n[63] wl[63] vdd SP6T3WLDriver_N26L400WP26L800W
X$70 vss vdd vss wl_n[64] wl[64] vdd SP6T3WLDriver_N26L400WP26L800W
X$71 vss vdd vss wl_n[65] wl[65] vdd SP6T3WLDriver_N26L400WP26L800W
X$72 vss vdd vss wl_n[66] wl[66] vdd SP6T3WLDriver_N26L400WP26L800W
X$73 vss vdd vss wl_n[67] wl[67] vdd SP6T3WLDriver_N26L400WP26L800W
X$74 vss vdd vss wl_n[68] wl[68] vdd SP6T3WLDriver_N26L400WP26L800W
X$75 vss vdd vss wl_n[69] wl[69] vdd SP6T3WLDriver_N26L400WP26L800W
X$76 vss vdd vss wl_n[70] wl[70] vdd SP6T3WLDriver_N26L400WP26L800W
X$77 vss vdd vss wl_n[71] wl[71] vdd SP6T3WLDriver_N26L400WP26L800W
X$78 vss vdd vss wl_n[72] wl[72] vdd SP6T3WLDriver_N26L400WP26L800W
X$79 vss vdd vss wl_n[73] wl[73] vdd SP6T3WLDriver_N26L400WP26L800W
X$80 vss vdd vss wl_n[74] wl[74] vdd SP6T3WLDriver_N26L400WP26L800W
X$81 vss vdd vss wl_n[75] wl[75] vdd SP6T3WLDriver_N26L400WP26L800W
X$82 vss vdd vss wl_n[76] wl[76] vdd SP6T3WLDriver_N26L400WP26L800W
X$83 vss vdd vss wl_n[77] wl[77] vdd SP6T3WLDriver_N26L400WP26L800W
X$84 vss vdd vss wl_n[78] wl[78] vdd SP6T3WLDriver_N26L400WP26L800W
X$85 vss vdd vss wl_n[79] wl[79] vdd SP6T3WLDriver_N26L400WP26L800W
X$87 vss vdd vss wl_n[80] wl[80] vdd SP6T3WLDriver_N26L400WP26L800W
X$88 vss vdd vss wl_n[81] wl[81] vdd SP6T3WLDriver_N26L400WP26L800W
X$89 vss vdd vss wl_n[82] wl[82] vdd SP6T3WLDriver_N26L400WP26L800W
X$90 vss vdd vss wl_n[83] wl[83] vdd SP6T3WLDriver_N26L400WP26L800W
X$91 vss vdd vss wl_n[84] wl[84] vdd SP6T3WLDriver_N26L400WP26L800W
X$92 vss vdd vss wl_n[85] wl[85] vdd SP6T3WLDriver_N26L400WP26L800W
X$93 vss vdd vss wl_n[86] wl[86] vdd SP6T3WLDriver_N26L400WP26L800W
X$94 vss vdd vss wl_n[87] wl[87] vdd SP6T3WLDriver_N26L400WP26L800W
X$95 vss vdd vss wl_n[88] wl[88] vdd SP6T3WLDriver_N26L400WP26L800W
X$96 vss vdd vss wl_n[89] wl[89] vdd SP6T3WLDriver_N26L400WP26L800W
X$97 vss vdd vss wl_n[90] wl[90] vdd SP6T3WLDriver_N26L400WP26L800W
X$98 vss vdd vss wl_n[91] wl[91] vdd SP6T3WLDriver_N26L400WP26L800W
X$99 vss vdd vss wl_n[92] wl[92] vdd SP6T3WLDriver_N26L400WP26L800W
X$100 vss vdd vss wl_n[93] wl[93] vdd SP6T3WLDriver_N26L400WP26L800W
X$101 vss vdd vss wl_n[94] wl[94] vdd SP6T3WLDriver_N26L400WP26L800W
X$102 vss vdd vss wl_n[95] wl[95] vdd SP6T3WLDriver_N26L400WP26L800W
X$104 vss vdd vss wl_n[96] wl[96] vdd SP6T3WLDriver_N26L400WP26L800W
X$105 vss vdd vss wl_n[97] wl[97] vdd SP6T3WLDriver_N26L400WP26L800W
X$106 vss vdd vss wl_n[98] wl[98] vdd SP6T3WLDriver_N26L400WP26L800W
X$107 vss vdd vss wl_n[99] wl[99] vdd SP6T3WLDriver_N26L400WP26L800W
X$108 vss vdd vss wl_n[100] wl[100] vdd SP6T3WLDriver_N26L400WP26L800W
X$109 vss vdd vss wl_n[101] wl[101] vdd SP6T3WLDriver_N26L400WP26L800W
X$110 vss vdd vss wl_n[102] wl[102] vdd SP6T3WLDriver_N26L400WP26L800W
X$111 vss vdd vss wl_n[103] wl[103] vdd SP6T3WLDriver_N26L400WP26L800W
X$112 vss vdd vss wl_n[104] wl[104] vdd SP6T3WLDriver_N26L400WP26L800W
X$113 vss vdd vss wl_n[105] wl[105] vdd SP6T3WLDriver_N26L400WP26L800W
X$114 vss vdd vss wl_n[106] wl[106] vdd SP6T3WLDriver_N26L400WP26L800W
X$115 vss vdd vss wl_n[107] wl[107] vdd SP6T3WLDriver_N26L400WP26L800W
X$116 vss vdd vss wl_n[108] wl[108] vdd SP6T3WLDriver_N26L400WP26L800W
X$117 vss vdd vss wl_n[109] wl[109] vdd SP6T3WLDriver_N26L400WP26L800W
X$118 vss vdd vss wl_n[110] wl[110] vdd SP6T3WLDriver_N26L400WP26L800W
X$119 vss vdd vss wl_n[111] wl[111] vdd SP6T3WLDriver_N26L400WP26L800W
X$121 vss vdd vss wl_n[112] wl[112] vdd SP6T3WLDriver_N26L400WP26L800W
X$122 vss vdd vss wl_n[113] wl[113] vdd SP6T3WLDriver_N26L400WP26L800W
X$123 vss vdd vss wl_n[114] wl[114] vdd SP6T3WLDriver_N26L400WP26L800W
X$124 vss vdd vss wl_n[115] wl[115] vdd SP6T3WLDriver_N26L400WP26L800W
X$125 vss vdd vss wl_n[116] wl[116] vdd SP6T3WLDriver_N26L400WP26L800W
X$126 vss vdd vss wl_n[117] wl[117] vdd SP6T3WLDriver_N26L400WP26L800W
X$127 vss vdd vss wl_n[118] wl[118] vdd SP6T3WLDriver_N26L400WP26L800W
X$128 vss vdd vss wl_n[119] wl[119] vdd SP6T3WLDriver_N26L400WP26L800W
X$129 vss vdd vss wl_n[120] wl[120] vdd SP6T3WLDriver_N26L400WP26L800W
X$130 vss vdd vss wl_n[121] wl[121] vdd SP6T3WLDriver_N26L400WP26L800W
X$131 vss vdd vss wl_n[122] wl[122] vdd SP6T3WLDriver_N26L400WP26L800W
X$132 vss vdd vss wl_n[123] wl[123] vdd SP6T3WLDriver_N26L400WP26L800W
X$133 vss vdd vss wl_n[124] wl[124] vdd SP6T3WLDriver_N26L400WP26L800W
X$134 vss vdd vss wl_n[125] wl[125] vdd SP6T3WLDriver_N26L400WP26L800W
X$135 vss vdd vss wl_n[126] wl[126] vdd SP6T3WLDriver_N26L400WP26L800W
X$136 vss vdd vss wl_n[127] wl[127] vdd SP6T3WLDriver_N26L400WP26L800W
.ENDS SP6T3WLDriverCol_128RN26L400WP26L800W

.SUBCKT SP6T3RowPeriph_PD3B4B_LD2B2R vss a[0] mux[0] vdd decodeclk mux[1] a[1]
+ mux[2] mux[3] a[2] wl_n[0] wl_n[1] wl_n[2] wl_n[3] wl_n[4] wl_n[5] wl_n[6]
+ wl_n[7] wl_n[8] wl_n[9] a[3] wl_n[10] wl_n[12] wl_n[11] wl_n[14] wl_n[13]
+ wl_n[15] wl_n[16] wl_n[17] a[4] wl_n[18] wl_n[20] wl_n[19] wl_n[22] wl_n[21]
+ wl_n[23] wl_n[24] wl_n[25] a[5] wl_n[26] wl_n[27] wl_n[28] wl_n[29] wl_n[30]
+ wl_n[31] wl_n[32] wl_n[33] a[6] wl_n[34] wl_n[35] wl_n[36] wl_n[37] wl_n[38]
+ wl_n[39] wl_n[40] wl_n[41] wl_n[42] wl_n[43] a[7] wl_n[44] wl_n[45] wl_n[46]
+ wl_n[47] wl_n[48] wl_n[49] wl_n[50] wl_n[51] a[8] wl_n[52] wl_n[53] wl_n[54]
+ wl_n[55] wl_n[56] wl_n[57] wl_n[58] wl_n[59] wl_n[60] wl_n[61] wl_n[62]
+ wl_n[63] wl_n[64] wl_en wl_n[66] wl_n[65] wl_n[67] wl_n[68] wl_n[69] wl_n[70]
+ wl_n[71] wl_n[72] wl_n[73] wl_n[74] wl_n[75] wl_n[76] wl_n[77] wl_n[78]
+ wl_n[79] wl_n[80] wl_n[81] wl_n[82] wl_n[83] wl_n[84] wl_n[85] wl_n[86]
+ wl_n[87] wl_n[88] wl_n[89] wl_n[90] wl_n[91] wl_n[92] wl_n[93] wl_n[94]
+ wl_n[95] wl_n[96] wl_n[97] wl_n[98] wl_n[99] wl_n[100] wl_n[101] wl_n[102]
+ wl_n[103] wl_n[104] wl_n[105] wl_n[106] wl_n[107] wl_n[108] wl_n[109]
+ wl_n[110] wl_n[111] wl_n[112] wl_n[113] wl_n[114] wl_n[115] wl_n[116]
+ wl_n[117] wl_n[118] wl_n[119] wl_n[120] wl_n[121] wl_n[122] wl_n[123]
+ wl_n[124] wl_n[125] wl_n[126] wl_n[127]
X$1 vss vdd a[0] a[1] mux[0] mux[1] mux[2] mux[3] decodeclk
+ SP6T3DirectColDec_A2B2R
X$2 vss a[2] wl_n[0] vdd wl_n[1] wl_n[2] wl_n[4] wl_n[3] wl_n[6] wl_n[5] a[3]
+ wl_n[8] wl_n[9] wl_n[7] wl_n[10] wl_n[11] wl_n[12] wl_n[13] wl_n[14] wl_n[15]
+ a[4] wl_n[16] wl_n[17] wl_n[18] wl_n[19] wl_n[20] wl_n[21] wl_n[22] wl_n[23]
+ decodeclk wl_n[24] wl_n[25] a[5] wl_n[26] wl_n[27] wl_n[28] wl_n[29] wl_n[30]